
     RDKit          3D

 22 24  0  0  0  0  0  0  0  0999 V2000
  -22.1812   -3.3815   30.6001 O   0  0  0  0  0  0  0  0  0  0  0  0
  -21.3179   -4.0143   31.5509 S   0  0  2  0  0  0  0  0  0  0  0  0
  -20.0404   -3.3470   31.2768 O   0  0  0  0  0  0  0  0  0  0  0  0
  -21.2494   -5.7017   31.2772 N   0  0  0  0  0  0  0  0  0  0  0  0
  -22.1559   -6.3001   30.2929 C   0  0  0  0  0  0  0  0  0  0  0  0
  -23.5398   -6.5255   30.9294 C   0  0  0  0  0  0  0  0  0  0  0  0
  -23.7220   -7.5417   31.9760 C   0  0  0  0  0  0  0  0  0  0  0  0
  -24.9228   -8.1109   32.0972 C   0  0  0  0  0  0  0  0  0  0  0  0
  -25.9698   -7.6854   31.4100 C   0  0  0  0  0  0  0  0  0  0  0  0
  -25.8376   -6.6382   30.4852 C   0  0  0  0  0  0  0  0  0  0  0  0
  -24.6335   -6.0624   30.3585 N   0  0  0  0  0  0  0  0  0  0  0  0
  -21.8590   -3.7929   33.2483 C   0  0  0  0  0  0  0  0  0  0  0  0
  -22.4057   -2.4909   33.3769 C   0  0  0  0  0  0  0  0  0  0  0  0
  -23.6072   -2.3545   34.0847 C   0  0  0  0  0  0  0  0  0  0  0  0
  -24.2117   -3.4262   34.7162 C   0  0  0  0  0  0  0  0  0  0  0  0
  -26.0736   -3.1162   35.0788 Br  0  0  0  0  0  0  0  0  0  0  0  0
  -23.5302   -4.6847   34.7252 C   0  0  0  0  0  0  0  0  0  0  0  0
  -24.2877   -5.8485   34.9835 C   0  0  0  0  0  0  0  0  0  0  0  0
  -23.6033   -7.1018   34.8495 C   0  0  0  0  0  0  0  0  0  0  0  0
  -22.2898   -7.1577   34.5680 C   0  0  0  0  0  0  0  0  0  0  0  0
  -21.6017   -6.0324   34.1867 C   0  0  0  0  0  0  0  0  0  0  0  0
  -22.2626   -4.7695   34.1731 C   0  0  0  0  0  0  0  0  0  0  0  0
  2  4  1  1
  2  1  2  0
  2  3  2  0
  2 12  1  0
 15 16  1  0
 17 15  4  0
 14 15  4  0
  5  4  1  0
 22 17  4  0
 17 18  4  0
  6 11  4  0
 11 10  4  0
 12 22  4  0
 22 21  4  0
 12 13  4  0
 13 14  4  0
 21 20  4  0
 20 19  4  0
 18 19  4  0
  5  6  1  0
  6  7  4  0
 10  9  4  0
  9  8  4  0
  8  7  4  0
M  END
$$$$
