
     RDKit          3D

 25 25  0  0  0  0  0  0  0  0999 V2000
    3.9157   26.9745   50.1893 C   0  0  0  0  0  0  0  0  0  0  0  0
    3.9376   25.7134   49.1974 C   0  0  0  0  0  0  0  0  0  0  0  0
    4.0329   24.3977   49.9520 C   0  0  0  0  0  0  0  0  0  0  0  0
    3.5175   23.2898   49.0373 C   0  0  0  0  0  0  0  0  0  0  0  0
    4.5191   22.1639   48.8181 C   0  0  0  0  0  0  0  0  0  0  0  0
    3.8341   20.8477   48.9810 C   0  0  0  0  0  0  0  0  0  0  0  0
    3.9172   19.9752   47.6811 C   0  0  0  0  0  0  0  0  0  0  0  0
    3.8012   18.4652   47.9307 C   0  0  0  0  0  0  0  0  0  0  0  0
    4.2227   17.6771   46.6754 C   0  0  0  0  0  0  0  0  0  0  0  0
    3.1927   16.5858   46.2792 C   0  0  0  0  0  0  0  0  0  0  0  0
    3.4395   15.9518   44.8889 C   0  0  0  0  0  0  0  0  0  0  0  0
    4.8811   15.3869   44.7059 C   0  0  0  0  0  0  0  0  0  0  0  0
    5.3175   15.0058   43.3564 C   0  0  0  0  0  0  0  0  0  0  0  0
    5.9505   16.1425   42.5534 C   0  0  0  0  0  0  0  0  0  0  0  0
    5.0786   17.2634   42.4691 O   0  0  0  0  0  0  0  0  0  0  0  0
    4.0298   17.2470   41.4857 C   0  0  0  0  0  0  0  0  0  0  0  0
    2.9205   18.0727   41.7167 C   0  0  0  0  0  0  0  0  0  0  0  0
    2.1073   18.5066   40.6958 C   0  0  0  0  0  0  0  0  0  0  0  0
    2.3930   18.0488   39.3874 C   0  0  0  0  0  0  0  0  0  0  0  0
    3.4398   17.1511   39.1751 C   0  0  0  0  0  0  0  0  0  0  0  0
    3.4814   16.5915   37.8622 O   0  0  0  0  0  0  0  0  0  0  0  0
    4.2544   16.7108   40.2186 C   0  0  0  0  0  0  0  0  0  0  0  0
    5.4495   15.7563   39.8896 C   0  0  0  0  0  0  0  0  0  0  0  0
    6.6203   16.1559   39.8496 O   0  0  0  0  0  0  0  0  0  0  0  0
    5.2864   14.5089   39.8626 O   0  0  0  0  0  0  0  0  0  0  0  0
  2  1  1  0
 23 24  2  0
 23 25  1  0
 20 21  1  0
 19 18  4  0
 18 17  4  0
 20 19  4  0
 17 16  4  0
  3  2  1  0
  4  3  1  0
  5  4  1  0
  6  5  1  0
  7  6  1  0
  8  7  1  0
  9  8  1  0
 10  9  1  0
 11 10  1  0
 12 11  1  0
 13 12  1  0
 14 13  1  0
 15 14  1  0
 16 15  1  0
 22 23  1  0
 20 22  4  0
 16 22  4  0
M  END
$$$$
