
     RDKit          3D

118120  0  0  0  0  0  0  0  0999 V2000
  -24.9222   20.7138   26.5907 H   0  0  0  0  0  0  0  0  0  0  0  0
  -24.9835   21.2057   27.7664 N   0  0  0  0  0  0  0  0  0  0  0  0
  -25.0503   20.1620   28.5821 C   0  0  0  0  0  0  0  0  0  0  0  0
  -25.0242   20.3328   29.9122 N   0  0  0  0  0  0  0  0  0  0  0  0
  -25.1097   18.9042   28.0565 N   0  0  0  0  0  0  0  0  0  0  0  0
  -25.3377   17.7386   28.8112 C   0  0  0  0  0  0  0  0  0  0  0  0
  -25.2518   17.9022   30.3050 C   0  0  0  0  0  0  0  0  0  0  0  0
  -25.5714   19.3482   30.6464 C   0  0  0  0  0  0  0  0  0  0  0  0
  -26.5646   19.9973   29.6805 C   0  0  2  0  0  0  0  0  0  0  0  0
  -27.9237   19.5875   30.0124 N   0  0  0  0  0  0  0  0  0  0  0  0
  -28.2205   18.8571   31.0788 C   0  0  0  0  0  0  0  0  0  0  0  0
  -27.3901   18.0211   31.5793 O   0  0  0  0  0  0  0  0  0  0  0  0
  -29.3288   19.3521   32.0145 C   0  0  1  0  0  0  0  0  0  0  0  0
  -30.4044   18.3400   32.1263 C   0  0  0  0  0  0  0  0  0  0  0  0
  -29.9348   17.0141   32.6408 C   0  0  0  0  0  0  0  0  0  0  0  0
  -29.5254   17.0778   34.1002 C   0  0  0  0  0  0  0  0  0  0  0  0
  -30.7332   17.2157   35.0591 C   0  0  0  0  0  0  0  0  0  0  0  0
  -32.0071   16.5870   34.5403 N   0  0  0  0  0  0  0  0  0  0  0  0
  -28.6757   19.6530   33.2846 N   0  0  0  0  0  0  0  0  0  0  0  0
  -29.2937   19.2859   34.4298 C   0  0  0  0  0  0  0  0  0  0  0  0
  -29.9131   20.1077   35.0879 O   0  0  0  0  0  0  0  0  0  0  0  0
  -28.8372   18.0353   35.1076 C   0  0  1  0  0  0  0  0  0  0  0  0
  -27.5196   18.3404   35.8273 C   0  0  0  0  0  0  0  0  0  0  0  0
  -27.5064   18.0743   37.3945 C   0  0  0  0  0  0  0  0  0  0  0  0
  -28.2603   19.1843   38.1569 C   0  0  0  0  0  0  0  0  0  0  0  0
  -29.6031   18.7212   38.7042 C   0  0  0  0  0  0  0  0  0  0  0  0
  -29.5514   18.7554   40.2323 N   0  0  0  0  0  0  0  0  0  0  0  0
  -29.8984   17.4489   35.9772 N   0  0  0  0  0  0  0  0  0  0  0  0
  -29.7886   16.3172   36.6391 C   0  0  0  0  0  0  0  0  0  0  0  0
  -29.8850   16.3168   38.1126 C   0  0  0  0  0  0  0  0  0  0  0  0
  -29.8485   15.2169   36.0252 O   0  0  0  0  0  0  0  0  0  0  0  0
  -26.2301   19.5291   28.2501 C   0  0  0  0  0  0  0  0  0  0  0  0
  -25.9949   20.4437   27.4129 O   0  0  0  0  0  0  0  0  0  0  0  0
  -26.4425   18.3324   27.9455 N   0  0  0  0  0  0  0  0  0  0  0  0
  -25.5955   17.5266   27.0888 C   0  0  1  0  0  0  0  0  0  0  0  0
  -25.1714   16.2441   27.7221 C   0  0  0  0  0  0  0  0  0  0  0  0
  -24.3955   16.3836   29.0187 C   0  0  0  0  0  0  0  0  0  0  0  0
  -23.5052   15.3922   29.3902 C   0  0  0  0  0  0  0  0  0  0  0  0
  -22.2154   15.7264   29.8442 C   0  0  0  0  0  0  0  0  0  0  0  0
  -21.8937   17.0944   30.0102 C   0  0  0  0  0  0  0  0  0  0  0  0
  -20.5440   17.4567   30.0360 O   0  0  0  0  0  0  0  0  0  0  0  0
  -22.8931   18.0551   29.9477 C   0  0  0  0  0  0  0  0  0  0  0  0
  -24.1828   17.6731   29.5600 C   0  0  0  0  0  0  0  0  0  0  0  0
  -26.3476   17.2215   25.8135 C   0  0  0  0  0  0  0  0  0  0  0  0
  -26.4305   16.0298   25.4380 O   0  0  0  0  0  0  0  0  0  0  0  0
  -26.8628   18.2746   25.1887 N   0  0  0  0  0  0  0  0  0  0  0  0
  -27.4993   19.3130   25.9429 C   0  0  2  0  0  0  0  0  0  0  0  0
  -27.7014   18.9036   27.3798 C   0  0  0  0  0  0  0  0  0  0  0  0
  -27.4072   17.5350   27.5026 O   0  0  0  0  0  0  0  0  0  0  0  0
  -28.8273   19.7356   25.3278 C   0  0  0  0  0  0  0  0  0  0  0  0
  -29.0500   19.5879   24.0908 O   0  0  0  0  0  0  0  0  0  0  0  0
  -29.7661   20.0119   26.1990 N   0  0  0  0  0  0  0  0  0  0  0  0
  -30.7271   19.0573   26.6665 C   0  0  2  0  0  0  0  0  0  0  0  0
  -29.9839   17.7293   26.7613 C   0  0  0  0  0  0  0  0  0  0  0  0
  -28.5627   17.8134   26.8599 C   0  0  0  0  0  0  0  0  0  0  0  0
  -28.1594   18.1728   28.2907 C   0  0  0  0  0  0  0  0  0  0  0  0
  -28.1079   19.5576   28.4099 N   0  0  0  0  0  0  0  0  0  0  0  0
  -27.1790   20.3579   27.8486 C   0  0  0  0  0  0  0  0  0  0  0  0
  -26.1152   20.8009   28.5687 N   0  0  0  0  0  0  0  0  0  0  0  0
  -27.6273   21.2573   27.0049 N   0  0  0  0  0  0  0  0  0  0  0  0
  -28.8032   21.4089   27.2913 H   0  0  0  0  0  0  0  0  0  0  0  0
  -31.9394   19.0125   25.6992 C   0  0  0  0  0  0  0  0  0  0  0  0
  -32.0685   19.9571   24.8904 O   0  0  0  0  0  0  0  0  0  0  0  0
  -32.5625   17.8258   25.4377 N   0  0  0  0  0  0  0  0  0  0  0  0
  -31.8265   17.7027   23.7634 C   0  0  2  0  0  0  0  0  0  0  0  0
  -32.9071   17.2575   23.3364 C   0  0  0  0  0  0  0  0  0  0  0  0
  -30.7396   16.7046   24.1164 C   0  0  0  0  0  0  0  0  0  0  0  0
  -29.4161   16.7651   23.3565 C   0  0  0  0  0  0  0  0  0  0  0  0
  -28.3038   16.1201   24.2064 C   0  0  0  0  0  0  0  0  0  0  0  0
  -27.0480   16.1254   23.3639 C   0  0  0  0  0  0  0  0  0  0  0  0
  -25.9767   16.9074   23.4937 C   0  0  0  0  0  0  0  0  0  0  0  0
  -25.7985   17.9802   24.5607 C   0  0  0  0  0  0  0  0  0  0  0  0
  -26.5407   19.2240   24.1543 C   0  0  0  0  0  0  0  0  0  0  0  0
  -26.0662   20.4585   24.8979 C   0  0  0  0  0  0  0  0  0  0  0  0
  -27.1266   21.2850   25.6518 C   0  0  1  0  0  0  0  0  0  0  0  0
  -26.4345   21.5316   26.9502 C   0  0  0  0  0  0  0  0  0  0  0  0
  -27.1922   22.7208   25.1323 C   0  0  0  0  0  0  0  0  0  0  0  0
  -27.4572   23.5833   26.0135 O   0  0  0  0  0  0  0  0  0  0  0  0
  -27.9560   22.8058   23.9973 N   0  0  0  0  0  0  0  0  0  0  0  0
  -28.6740   21.5484   23.6030 C   0  0  2  0  0  0  0  0  0  0  0  0
  -28.1160   21.1253   22.2535 C   0  0  0  0  0  0  0  0  0  0  0  0
  -28.1880   19.6516   22.0802 C   0  0  0  0  0  0  0  0  0  0  0  0
  -26.9930   18.9337   21.7816 C   0  0  0  0  0  0  0  0  0  0  0  0
  -26.6167   17.8419   22.5156 C   0  0  0  0  0  0  0  0  0  0  0  0
  -27.5526   17.2945   23.4255 C   0  0  0  0  0  0  0  0  0  0  0  0
  -28.8327   17.8494   23.5288 C   0  0  0  0  0  0  0  0  0  0  0  0
  -29.1737   18.9342   22.7751 C   0  0  0  0  0  0  0  0  0  0  0  0
  -30.1722   21.6790   23.5839 C   0  0  0  0  0  0  0  0  0  0  0  0
  -30.9549   20.5817   23.0353 N   0  0  0  0  0  0  0  0  0  0  0  0
  -30.7633   22.5428   24.2955 O   0  0  0  0  0  0  0  0  0  0  0  0
  -28.4046   20.7371   26.0686 N   0  0  0  0  0  0  0  0  0  0  0  0
  -28.3110   20.2579   27.3517 C   0  0  0  0  0  0  0  0  0  0  0  0
  -27.8775   21.2856   28.2394 O   0  0  0  0  0  0  0  0  0  0  0  0
  -29.5379   19.5955   27.9779 C   0  0  2  0  0  0  0  0  0  0  0  0
  -29.4500   18.0916   27.8064 C   0  0  0  0  0  0  0  0  0  0  0  0
  -30.7117   17.3234   27.6760 C   0  0  1  0  0  0  0  0  0  0  0  0
  -30.9634   16.7998   26.2758 C   0  0  0  0  0  0  0  0  0  0  0  0
  -30.7787   16.1663   28.7157 C   0  0  0  0  0  0  0  0  0  0  0  0
  -30.7848   20.1275   27.4460 N   0  0  0  0  0  0  0  0  0  0  0  0
  -31.1359   21.3727   27.7546 C   0  0  0  0  0  0  0  0  0  0  0  0
  -30.5325   22.0798   28.6016 O   0  0  0  0  0  0  0  0  0  0  0  0
  -32.5065   21.8024   27.2334 C   0  0  2  0  0  0  0  0  0  0  0  0
  -33.5891   21.3687   28.1545 C   0  0  0  0  0  0  0  0  0  0  0  0
  -33.1369   20.9470   29.5568 C   0  0  2  0  0  0  0  0  0  0  0  0
  -34.1954   21.2720   30.5630 C   0  0  0  0  0  0  0  0  0  0  0  0
  -31.8006   21.6486   29.9036 C   0  0  0  0  0  0  0  0  0  0  0  0
  -32.7522   21.4027   25.8319 N   0  0  0  0  0  0  0  0  0  0  0  0
  -31.9724   21.9309   24.8601 C   0  0  0  0  0  0  0  0  0  0  0  0
  -33.2649   19.6486   24.6166 O   0  0  0  0  0  0  0  0  0  0  0  0
  -32.2043   21.4444   23.4462 C   0  0  1  0  0  0  0  0  0  0  0  0
  -30.9463   21.7630   22.6210 C   0  0  0  0  0  0  0  0  0  0  0  0
  -30.1539   22.9786   23.0934 C   0  0  0  0  0  0  0  0  0  0  0  0
  -29.8144   23.9441   21.9821 C   0  0  0  0  0  0  0  0  0  0  0  0
  -30.0331   25.2129   22.2853 N   0  0  0  0  0  0  0  0  0  0  0  0
  -29.1031   23.5858   21.0230 O   0  0  0  0  0  0  0  0  0  0  0  0
  -32.5012   20.0122   23.3844 N   0  0  0  0  0  0  0  0  0  0  0  0
  -31.5560   19.1811   23.7003 C   0  0  0  0  0  0  0  0  0  0  0  0
  -30.3359   19.4690   23.7386 O   0  0  0  0  0  0  0  0  0  0  0  0
 29 31  2  0
 29 30  1  0
 28 29  1  0
 22 28  1  0
 20 22  1  0
 22 23  1  6
 20 21  2  0
 19 20  1  0
 23 24  1  0
 24 25  1  0
 25 26  1  0
 26 27  1  0
 13 19  1  0
 11 13  1  0
 13 14  1  6
 11 12  2  0
 10 11  1  0
 14 15  1  0
 15 16  1  0
 16 17  1  0
 17 18  1  0
  9 10  1  0
 32  9  1  0
  9  8  1  1
 32 33  2  0
 34 32  1  0
  8  7  1  0
  7  6  1  0
  6  5  1  0
  5  3  1  0
  3  4  1  0
  3  2  2  0
 35 34  1  0
 44 35  1  0
 35 36  1  1
 44 45  2  0
 46 44  1  0
 36 37  1  0
 37 38  4  0
 37 43  4  0
 38 39  4  0
 43 42  4  0
 39 40  4  0
 42 40  4  0
 40 41  1  0
 47 46  1  0
 50 47  1  0
 47 48  1  6
 50 51  2  0
 52 50  1  0
 48 49  1  0
 53 52  1  0
 62 53  1  0
 53 54  1  1
 62 63  2  0
 64 62  1  0
 54 55  1  0
 55 56  1  0
 56 57  1  0
 57 58  1  0
 58 60  2  0
 58 59  1  0
117118  2  0
117 65  1  0
116117  1  0
 65 66  1  6
 65 64  1  0
 65 67  1  0
 67 68  1  0
 68 69  1  0
 69 70  1  0
 70 71  2  0
110116  1  0
108110  1  0
110111  1  1
108109  2  0
107108  1  0
111112  1  0
112113  1  0
113115  2  0
113114  1  0
102107  1  0
100102  1  0
102103  1  1
100101  2  0
 99100  1  0
103104  1  0
104105  1  6
104106  1  0
 94 99  1  0
 92 94  1  0
 94 95  1  6
 92 93  2  0
 91 92  1  0
 95 96  1  0
 96 97  1  6
 96 98  1  0
 77 78  2  0
 75 77  1  0
 77 79  1  0
 75 76  1  6
 75 91  1  0
 75 74  1  0
 74 73  1  0
 73 72  1  0
 72 71  1  0
 79 80  1  0
 80 88  1  0
 80 81  1  1
 88 90  2  0
 88 89  1  0
 81 82  1  0
 82 83  4  0
 82 87  4  0
 83 84  4  0
 87 86  4  0
 84 85  4  0
 86 85  4  0
  2  1  1  0
 60 61  1  0
M  CHG  2  18   1  27   1
M  END
$$$$
