
     RDKit          3D

122123  0  0  0  0  0  0  0  0999 V2000
   32.2725   47.6675   78.1635 H   0  0  0  0  0  0  0  0  0  0  0  0
   31.9365   48.8568   78.3403 N   0  0  0  0  0  0  0  0  0  0  0  0
   31.4983   48.9125   79.6605 C   0  0  0  0  0  0  0  0  0  0  0  0
   31.1949   47.7606   80.2522 N   0  0  0  0  0  0  0  0  0  0  0  0
   31.1389   50.0662   80.1502 N   0  0  0  0  0  0  0  0  0  0  0  0
   30.9373   50.3374   81.5580 C   0  0  0  0  0  0  0  0  0  0  0  0
   32.2115   50.6895   82.3119 C   0  0  0  0  0  0  0  0  0  0  0  0
   33.4039   50.6067   81.3441 C   0  0  0  0  0  0  0  0  0  0  0  0
   33.1973   49.8195   80.0733 C   0  0  1  0  0  0  0  0  0  0  0  0
   32.6447   48.4166   80.3603 C   0  0  0  0  0  0  0  0  0  0  0  0
   32.3882   48.1364   81.5516 O   0  0  0  0  0  0  0  0  0  0  0  0
   32.3998   50.5763   79.1424 N   0  0  0  0  0  0  0  0  0  0  0  0
   32.9132   51.2949   78.1271 C   0  0  0  0  0  0  0  0  0  0  0  0
   32.3955   51.2959   76.9974 O   0  0  0  0  0  0  0  0  0  0  0  0
   33.9459   52.3210   78.5534 C   0  0  1  0  0  0  0  0  0  0  0  0
   33.1933   53.5502   79.1403 C   0  0  0  0  0  0  0  0  0  0  0  0
   33.1405   54.7348   78.1335 C   0  0  0  0  0  0  0  0  0  0  0  0
   31.8292   55.4293   78.1844 C   0  0  0  0  0  0  0  0  0  0  0  0
   30.7251   54.6674   78.2569 N   0  0  0  0  0  0  0  0  0  0  0  0
   31.7266   56.6721   78.2832 O   0  0  0  0  0  0  0  0  0  0  0  0
   34.8426   51.7206   79.5459 N   0  0  0  0  0  0  0  0  0  0  0  0
   34.7370   52.1885   80.8239 C   0  0  0  0  0  0  0  0  0  0  0  0
   33.6627   52.6698   81.1878 O   0  0  0  0  0  0  0  0  0  0  0  0
   35.8787   53.5272   80.8458 C   0  0  1  0  0  0  0  0  0  0  0  0
   35.9574   53.7836   79.3390 C   0  0  0  0  0  0  0  0  0  0  0  0
   35.9378   55.2859   79.1264 C   0  0  0  0  0  0  0  0  0  0  0  0
   37.0574   55.8583   78.4090 C   0  0  0  0  0  0  0  0  0  0  0  0
   37.6263   56.9759   78.9320 C   0  0  0  0  0  0  0  0  0  0  0  0
   37.0778   57.6354   80.0254 C   0  0  0  0  0  0  0  0  0  0  0  0
   35.8789   57.2046   80.5462 C   0  0  0  0  0  0  0  0  0  0  0  0
   35.2025   56.1114   79.9375 C   0  0  0  0  0  0  0  0  0  0  0  0
   34.9036   54.5855   81.3569 N   0  0  0  0  0  0  0  0  0  0  0  0
   34.5595   53.4224   80.8735 C   0  0  0  0  0  0  0  0  0  0  0  0
   34.4549   52.5719   82.1354 O   0  0  0  0  0  0  0  0  0  0  0  0
   35.5955   52.6520   80.0571 C   0  0  2  0  0  0  0  0  0  0  0  0
   35.7869   51.2442   80.5702 C   0  0  0  0  0  0  0  0  0  0  0  0
   36.9933   53.3509   79.9507 C   0  0  0  0  0  0  0  0  0  0  0  0
   37.6516   53.1834   78.5554 C   0  0  0  0  0  0  0  0  0  0  0  0
   38.1658   51.7667   78.4078 C   0  0  0  0  0  0  0  0  0  0  0  0
   39.2777   51.5393   79.4575 C   0  0  0  0  0  0  0  0  0  0  0  0
   35.1721   52.5357   78.6569 N   0  0  0  0  0  0  0  0  0  0  0  0
   35.8980   52.2516   77.5802 C   0  0  0  0  0  0  0  0  0  0  0  0
   35.3690   52.2310   76.4758 O   0  0  0  0  0  0  0  0  0  0  0  0
   37.4408   52.3118   77.6216 C   0  0  2  0  0  0  0  0  0  0  0  0
   37.9654   53.4363   76.7155 C   0  0  0  0  0  0  0  0  0  0  0  0
   39.4921   53.5404   76.6426 C   0  0  2  0  0  0  0  0  0  0  0  0
   39.9024   54.1234   75.3255 C   0  0  0  0  0  0  0  0  0  0  0  0
   40.0861   52.1170   76.7853 C   0  0  0  0  0  0  0  0  0  0  0  0
   38.1216   51.0293   77.3364 N   0  0  0  0  0  0  0  0  0  0  0  0
   38.9219   50.9166   76.2564 C   0  0  0  0  0  0  0  0  0  0  0  0
   38.6197   51.3561   75.1268 O   0  0  0  0  0  0  0  0  0  0  0  0
   40.0872   49.9188   76.4469 C   0  0  2  0  0  0  0  0  0  0  0  0
   40.9122   49.8279   75.1203 C   0  0  0  0  0  0  0  0  0  0  0  0
   40.1156   49.6728   73.8285 C   0  0  2  0  0  0  0  0  0  0  0  0
   40.4389   48.3762   73.1827 C   0  0  0  0  0  0  0  0  0  0  0  0
   40.3340   50.8639   72.8438 C   0  0  0  0  0  0  0  0  0  0  0  0
   39.5607   48.5734   76.8095 N   0  0  0  0  0  0  0  0  0  0  0  0
   38.3421   48.4216   77.2214 C   0  0  0  0  0  0  0  0  0  0  0  0
   37.7281   47.3668   77.1056 O   0  0  0  0  0  0  0  0  0  0  0  0
   37.4648   49.7337   77.3517 C   0  0  2  0  0  0  0  0  0  0  0  0
   36.3530   49.4525   78.3794 C   0  0  0  0  0  0  0  0  0  0  0  0
   36.4413   48.0954   79.0708 C   0  0  0  0  0  0  0  0  0  0  0  0
   35.1021   47.4332   79.2881 C   0  0  0  0  0  0  0  0  0  0  0  0
   34.5494   46.8064   78.2853 N   0  0  0  0  0  0  0  0  0  0  0  0
   34.3986   47.6960   80.3373 O   0  0  0  0  0  0  0  0  0  0  0  0
   36.8796   50.1572   76.0652 N   0  0  0  0  0  0  0  0  0  0  0  0
   35.9408   49.4109   75.4783 C   0  0  0  0  0  0  0  0  0  0  0  0
   35.8562   49.2567   74.2844 O   0  0  0  0  0  0  0  0  0  0  0  0
   35.3332   48.3200   76.3739 C   0  0  2  0  0  0  0  0  0  0  0  0
   34.0209   47.7629   75.7721 C   0  0  0  0  0  0  0  0  0  0  0  0
   33.6364   46.3366   76.2034 C   0  0  0  0  0  0  0  0  0  0  0  0
   34.7277   45.6274   77.0005 C   0  0  0  0  0  0  0  0  0  0  0  0
   34.4695   44.5887   77.6371 O   0  0  0  0  0  0  0  0  0  0  0  0
   35.8630   46.1851   77.0450 O   0  0  0  0  0  0  0  0  0  0  0  0
   35.1880   48.7456   77.7104 N   0  0  0  0  0  0  0  0  0  0  0  0
   34.7432   49.9889   78.0181 C   0  0  0  0  0  0  0  0  0  0  0  0
   33.6028   50.1097   78.4826 O   0  0  0  0  0  0  0  0  0  0  0  0
   35.3990   51.1293   77.2614 C   0  0  2  0  0  0  0  0  0  0  0  0
   36.8822   51.1829   77.6434 C   0  0  0  0  0  0  0  0  0  0  0  0
   37.2437   50.2422   78.7988 C   0  0  0  0  0  0  0  0  0  0  0  0
   36.9517   50.7253   80.1972 C   0  0  0  0  0  0  0  0  0  0  0  0
   35.8164   50.0512   80.8414 N   0  0  0  0  0  0  0  0  0  0  0  0
   34.6374   49.7781   80.1322 C   0  0  0  0  0  0  0  0  0  0  0  0
   34.5641   48.5896   79.4659 N   0  0  0  0  0  0  0  0  0  0  0  0
   33.9969   50.8270   79.6697 N   0  0  0  0  0  0  0  0  0  0  0  0
   34.4254   51.0829   78.5575 H   0  0  0  0  0  0  0  0  0  0  0  0
   34.6869   52.3823   77.5061 N   0  0  0  0  0  0  0  0  0  0  0  0
   36.0088   53.3396   78.1649 C   0  0  0  0  0  0  0  0  0  0  0  0
   35.3791   54.3756   78.3535 O   0  0  0  0  0  0  0  0  0  0  0  0
   36.4665   52.2780   79.1677 C   0  0  1  0  0  0  0  0  0  0  0  0
   36.0845   50.8871   78.6100 C   0  0  0  0  0  0  0  0  0  0  0  0
   36.1675   49.8722   79.6316 O   0  0  0  0  0  0  0  0  0  0  0  0
   37.8604   52.4433   79.5270 N   0  0  0  0  0  0  0  0  0  0  0  0
   38.8182   52.7975   78.7047 C   0  0  0  0  0  0  0  0  0  0  0  0
   38.7456   52.4897   77.4897 O   0  0  0  0  0  0  0  0  0  0  0  0
   39.9912   53.5320   79.2241 C   0  0  1  0  0  0  0  0  0  0  0  0
   39.8174   55.0236   78.9390 C   0  0  0  0  0  0  0  0  0  0  0  0
   39.3349   55.7865   80.2562 C   0  0  0  0  0  0  0  0  0  0  0  0
   38.3068   56.7522   79.9697 C   0  0  0  0  0  0  0  0  0  0  0  0
   36.9874   56.2927   79.8238 C   0  0  0  0  0  0  0  0  0  0  0  0
   36.8417   54.8242   79.8102 C   0  0  0  0  0  0  0  0  0  0  0  0
   36.9123   54.2430   78.5686 O   0  0  0  0  0  0  0  0  0  0  0  0
   37.6104   54.2016   80.8416 C   0  0  0  0  0  0  0  0  0  0  0  0
   38.8140   54.7740   81.1952 C   0  0  0  0  0  0  0  0  0  0  0  0
   40.0449   53.2841   80.6433 N   0  0  0  0  0  0  0  0  0  0  0  0
   40.5900   54.1955   81.5043 C   0  0  0  0  0  0  0  0  0  0  0  0
   40.6332   53.9527   82.7100 O   0  0  0  0  0  0  0  0  0  0  0  0
   40.5954   55.6049   81.0380 C   0  0  2  0  0  0  0  0  0  0  0  0
   40.7783   55.6804   79.5131 C   0  0  0  0  0  0  0  0  0  0  0  0
   41.3998   54.4169   78.9386 C   0  0  0  0  0  0  0  0  0  0  0  0
   41.8815   53.4020   79.9589 C   0  0  0  0  0  0  0  0  0  0  0  0
   42.9922   52.5822   79.5018 N   0  0  0  0  0  0  0  0  0  0  0  0
   44.2195   53.0088   79.3086 C   0  0  0  0  0  0  0  0  0  0  0  0
   45.2834   52.2923   79.6651 N   0  0  0  0  0  0  0  0  0  0  0  0
   44.4600   54.1225   78.5598 N   0  0  0  0  0  0  0  0  0  0  0  0
   43.5401   54.1909   77.7573 H   0  0  0  0  0  0  0  0  0  0  0  0
   41.6405   56.4354   81.7266 N   0  0  0  0  0  0  0  0  0  0  0  0
   42.9460   56.2513   81.5087 C   0  0  0  0  0  0  0  0  0  0  0  0
   43.4703   55.1479   81.3861 O   0  0  0  0  0  0  0  0  0  0  0  0
   43.6686   57.5036   80.9652 C   0  0  2  0  0  0  0  0  0  0  0  0
   45.1821   57.3682   81.2710 C   0  0  0  0  0  0  0  0  0  0  0  0
   43.0655   58.7581   81.5548 N   0  0  0  0  0  0  0  0  0  0  0  0
120122  1  0
118120  1  0
120121  1  1
118119  2  0
117118  1  0
108117  1  0
106108  1  0
108109  1  6
106107  2  0
105106  1  0
109110  1  0
110111  1  0
111112  1  0
112113  1  0
113114  1  0
113115  2  0
 96105  1  0
 94 96  1  0
 96 97  1  6
 94 95  2  0
 93 94  1  0
 97 98  1  0
 98 99  4  0
 98104  4  0
 99100  4  0
104103  4  0
100101  4  0
103101  4  0
101102  1  0
 90 93  1  0
 88 90  1  0
 90 91  1  1
 88 89  2  0
 87 88  1  0
 91 92  1  0
 78 87  1  0
 76 78  1  0
 78 79  1  1
 76 77  2  0
 75 76  1  0
 79 80  1  0
 80 81  1  0
 81 82  1  0
 82 83  1  0
 83 85  2  0
 83 84  1  0
 69 75  1  0
 67 69  1  0
 69 70  1  6
 67 68  2  0
 66 67  1  0
 70 71  1  0
 71 72  1  0
 72 74  1  0
 72 73  2  0
 60 66  1  0
 58 60  1  0
 60 61  1  1
 58 59  2  0
 57 58  1  0
 61 62  1  0
 62 63  1  0
 63 65  2  0
 63 64  1  0
 52 57  1  0
 50 52  1  0
 52 53  1  6
 50 51  2  0
 49 50  1  0
 53 54  1  0
 54 55  1  1
 54 56  1  0
 44 49  1  0
 42 44  1  0
 44 45  1  6
 42 43  2  0
 41 42  1  0
 45 46  1  0
 46 47  1  1
 46 48  1  0
 33 34  2  0
 35 33  1  0
 33 32  1  0
 35 41  1  0
 37 35  1  0
 35 36  1  1
 38 37  1  0
 39 40  1  0
 39 38  1  0
 32 24  1  0
 24 22  1  0
 24 25  1  1
 22 23  2  0
 22 21  1  0
 25 26  1  0
 26 27  4  0
 26 31  4  0
 27 28  4  0
 31 30  4  0
 28 29  4  0
 30 29  4  0
 21 15  1  0
 15 13  1  0
 15 16  1  6
 13 14  2  0
 13 12  1  0
 16 17  1  0
 17 18  1  0
 18 20  2  0
 18 19  1  0
 12  9  1  0
  9 10  1  0
  9  8  1  1
 10 11  2  0
  8  7  1  0
  7  6  1  0
  6  5  1  0
  5  3  1  0
  3  2  2  0
  3  4  1  0
115116  1  0
 85 86  1  0
  2  1  1  0
M  CHG  1 122   1
M  END
$$$$
