
     RDKit          3D

 45 45  0  0  0  0  0  0  0  0999 V2000
  -27.6115   11.5750    2.4189 H   0  0  0  0  0  0  0  0  0  0  0  0
  -27.8520   11.0360    1.5870 N   0  0  0  0  0  0  0  0  0  0  0  0
  -27.9760    9.7160    1.6640 C   0  0  0  0  0  0  0  0  0  0  0  0
  -28.3030    9.0390    0.5690 N   0  0  0  0  0  0  0  0  0  0  0  0
  -27.7940    9.0580    2.8110 N   0  0  0  0  0  0  0  0  0  0  0  0
  -27.3990    9.6640    4.0790 C   0  0  0  0  0  0  0  0  0  0  0  0
  -25.8900    9.8590    4.0520 C   0  0  0  0  0  0  0  0  0  0  0  0
  -25.2910   10.3010    5.3800 C   0  0  0  0  0  0  0  0  0  0  0  0
  -23.7910   10.6350    5.2870 C   0  0  1  0  0  0  0  0  0  0  0  0
  -23.5660   11.7580    4.2660 C   0  0  0  0  0  0  0  0  0  0  0  0
  -23.1160   11.4710    3.1470 O   0  0  0  0  0  0  0  0  0  0  0  0
  -23.2430   10.9970    6.5930 N   0  0  0  0  0  0  0  0  0  0  0  0
  -21.9760   11.3850    6.7450 C   0  0  0  0  0  0  0  0  0  0  0  0
  -21.1400   11.3760    5.8200 O   0  0  0  0  0  0  0  0  0  0  0  0
  -21.5920   11.8800    8.1390 C   0  0  2  0  0  0  0  0  0  0  0  0
  -22.1930   13.2690    8.3710 C   0  0  0  0  0  0  0  0  0  0  0  0
  -21.8000   14.1820    7.3510 O   0  0  0  0  0  0  0  0  0  0  0  0
  -20.1440   11.9340    8.2470 N   0  0  0  0  0  0  0  0  0  0  0  0
  -19.3990   10.8370    8.3220 C   0  0  0  0  0  0  0  0  0  0  0  0
  -19.8550    9.7170    8.5600 O   0  0  0  0  0  0  0  0  0  0  0  0
  -17.9060   11.0310    8.0850 C   0  0  2  0  0  0  0  0  0  0  0  0
  -17.5770   10.6150    6.6460 C   0  0  0  0  0  0  0  0  0  0  0  0
  -16.1030   10.6430    6.3320 C   0  0  0  0  0  0  0  0  0  0  0  0
  -15.4160   11.8510    6.1850 C   0  0  0  0  0  0  0  0  0  0  0  0
  -14.0470   11.8710    5.9050 C   0  0  0  0  0  0  0  0  0  0  0  0
  -13.3600   10.6760    5.7790 C   0  0  0  0  0  0  0  0  0  0  0  0
  -12.0100   10.6700    5.5120 O   0  0  0  0  0  0  0  0  0  0  0  0
  -14.0240    9.4730    5.9230 C   0  0  0  0  0  0  0  0  0  0  0  0
  -15.3840    9.4610    6.1980 C   0  0  0  0  0  0  0  0  0  0  0  0
  -17.1060   10.2840    9.0700 N   0  0  0  0  0  0  0  0  0  0  0  0
  -16.2840   10.8930    9.9280 C   0  0  0  0  0  0  0  0  0  0  0  0
  -16.0940   12.1100    9.9390 O   0  0  0  0  0  0  0  0  0  0  0  0
  -15.5590    9.9990   10.9340 C   0  0  2  0  0  0  0  0  0  0  0  0
  -14.5390    9.1000   10.2220 C   0  0  0  0  0  0  0  0  0  0  0  0
  -13.4730    9.8640    9.4460 C   0  0  0  0  0  0  0  0  0  0  0  0
  -12.3740    8.9490    8.9400 C   0  0  0  0  0  0  0  0  0  0  0  0
  -11.4520    8.5490   10.0010 N   0  0  0  0  0  0  0  0  0  0  0  0
  -10.4010    7.7440    9.8360 C   0  0  0  0  0  0  0  0  0  0  0  0
  -10.1100    7.2300    8.6370 N   0  0  0  0  0  0  0  0  0  0  0  0
   -9.6360    7.4460   10.8810 N   0  0  0  0  0  0  0  0  0  0  0  0
   -9.8545    7.8319   11.7996 H   0  0  0  0  0  0  0  0  0  0  0  0
  -16.5340    9.1770   11.7220 N   0  0  0  0  0  0  0  0  0  0  0  0
  -17.3550    9.5870   12.7310 C   0  0  0  0  0  0  0  0  0  0  0  0
  -17.3520   11.0430   13.2070 C   0  0  0  0  0  0  0  0  0  0  0  0
  -18.1120    8.7820   13.2960 O   0  0  0  0  0  0  0  0  0  0  0  0
 43 45  2  0
 43 44  1  0
 43 42  1  0
 42 33  1  0
 33 31  1  0
 33 34  1  6
 31 32  2  0
 31 30  1  0
 34 35  1  0
 35 36  1  0
 36 37  1  0
 37 38  1  0
 38 39  1  0
 38 40  2  0
 30 21  1  0
 21 19  1  0
 21 22  1  6
 19 20  2  0
 19 18  1  0
 22 23  1  0
 23 24  2  0
 23 29  1  0
 24 25  1  0
 29 28  2  0
 25 26  2  0
 28 26  1  0
 26 27  1  0
 18 15  1  0
 15 13  1  0
 15 16  1  6
 13 14  2  0
 13 12  1  0
 16 17  1  0
 12  9  1  0
  9 10  1  0
  9  8  1  1
 10 11  2  0
  8  7  1  0
  7  6  1  0
  6  5  1  0
  5  3  1  0
  3  4  1  0
  3  2  2  0
 40 41  1  0
  2  1  1  0
M  END
$$$$
