
     RDKit          3D

 30 33  0  0  0  0  0  0  0  0999 V2000
   58.8420    3.6190   20.0660 O   0  0  0  0  0  0  0  0  0  0  0  0
   58.3510    2.3500   19.4120 P   0  0  2  0  0  0  0  0  0  0  0  0
   59.2920    1.9680   18.2940 O   0  0  0  0  0  0  0  0  0  0  0  0
   56.9720    2.5830   18.8400 O   0  0  0  0  0  0  0  0  0  0  0  0
   58.2770    0.9720   20.6650 C   0  0  2  0  0  0  0  0  0  0  0  0
   57.2550    1.2590   21.5800 O   0  0  0  0  0  0  0  0  0  0  0  0
   59.6250    0.9080   21.3950 C   0  0  0  0  0  0  0  0  0  0  0  0
   59.8070   -0.2730   22.3580 C   0  0  0  0  0  0  0  0  0  0  0  0
   58.8690   -0.5810   23.3330 C   0  0  0  0  0  0  0  0  0  0  0  0
   59.0790   -1.6560   24.1870 C   0  0  0  0  0  0  0  0  0  0  0  0
   60.2290   -2.4270   24.0820 C   0  0  0  0  0  0  0  0  0  0  0  0
   61.1710   -2.1180   23.1140 C   0  0  0  0  0  0  0  0  0  0  0  0
   62.3490   -2.8380   22.9540 C   0  0  0  0  0  0  0  0  0  0  0  0
   62.7920   -3.0060   21.6510 C   0  0  0  0  0  0  0  0  0  0  0  0
   63.9700   -3.6890   21.3860 C   0  0  0  0  0  0  0  0  0  0  0  0
   64.7140   -4.1970   22.4370 C   0  0  0  0  0  0  0  0  0  0  0  0
   64.2830   -4.0280   23.7590 C   0  0  0  0  0  0  0  0  0  0  0  0
   63.1150   -3.3510   24.0230 C   0  0  0  0  0  0  0  0  0  0  0  0
   62.9460   -3.3400   25.4020 O   0  0  0  0  0  0  0  0  0  0  0  0
   64.0160   -4.0120   25.9820 C   0  0  0  0  0  0  0  0  0  0  0  0
   64.3460   -4.2940   27.3180 C   0  0  0  0  0  0  0  0  0  0  0  0
   65.5020   -5.0020   27.6160 C   0  0  0  0  0  0  0  0  0  0  0  0
   66.3380   -5.4320   26.5930 C   0  0  0  0  0  0  0  0  0  0  0  0
   66.0110   -5.1550   25.2740 C   0  0  0  0  0  0  0  0  0  0  0  0
   64.8410   -4.4390   24.9730 C   0  0  0  0  0  0  0  0  0  0  0  0
   60.9540   -1.0430   22.2650 C   0  0  0  0  0  0  0  0  0  0  0  0
   57.8770   -0.5990   19.7440 P   0  0  1  0  0  0  0  0  0  0  0  0
   58.9730   -0.8990   18.7500 O   0  0  0  0  0  0  0  0  0  0  0  0
   57.7250   -1.7610   20.6960 O   0  0  0  0  0  0  0  0  0  0  0  0
   56.5760   -0.4040   19.0000 O   0  0  0  0  0  0  0  0  0  0  0  0
 25 24  2  0
 25 20  1  0
 25 17  1  0
 24 23  1  0
 23 22  2  0
 22 21  1  0
 21 20  2  0
 20 19  1  0
 19 18  1  0
 18 17  2  0
 18 13  1  0
 17 16  1  0
 16 15  2  0
 15 14  1  0
 14 13  2  0
 13 12  1  0
 12 26  2  0
 12 11  1  0
 26  8  1  0
 11 10  2  0
 10  9  1  0
  9  8  2  0
  8  7  1  0
  7  5  1  0
  5  2  1  0
  5 27  1  0
  5  6  1  1
  2  3  1  6
  2  1  2  0
  2  4  1  0
 27 28  2  0
 27 29  1  1
 27 30  1  0
M  END
$$$$
