
     RDKit          3D

135137  0  0  0  0  0  0  0  0999 V2000
  -12.1458  -19.6636    1.0488 H   0  0  0  0  0  0  0  0  0  0  0  0
  -11.5710  -18.8220    1.0900 N   0  0  0  0  0  0  0  0  0  0  0  0
  -11.9600  -17.7900    1.8220 C   0  0  0  0  0  0  0  0  0  0  0  0
  -11.2140  -16.6810    1.8400 N   0  0  0  0  0  0  0  0  0  0  0  0
  -13.1030  -17.8620    2.5000 N   0  0  0  0  0  0  0  0  0  0  0  0
  -13.6730  -16.7860    3.2990 C   0  0  0  0  0  0  0  0  0  0  0  0
  -14.9750  -17.2200    3.9520 C   0  0  0  0  0  0  0  0  0  0  0  0
  -15.6520  -16.0540    4.6370 C   0  0  0  0  0  0  0  0  0  0  0  0
  -17.0100  -16.3790    5.2650 C   0  0  2  0  0  0  0  0  0  0  0  0
  -17.7220  -15.1350    5.5220 N   0  0  0  0  0  0  0  0  0  0  0  0
  -19.0110  -15.1180    5.8250 C   0  0  0  0  0  0  0  0  0  0  0  0
  -19.7330  -16.1200    5.7390 O   0  0  0  0  0  0  0  0  0  0  0  0
  -19.6100  -13.7870    6.2860 C   0  0  2  0  0  0  0  0  0  0  0  0
  -20.7100  -13.3820    5.2940 C   0  0  0  0  0  0  0  0  0  0  0  0
  -21.7450  -12.4440    5.8530 C   0  0  0  0  0  0  0  0  0  0  0  0
  -22.1620  -12.5090    7.1820 C   0  0  0  0  0  0  0  0  0  0  0  0
  -23.1080  -11.6390    7.6680 C   0  0  0  0  0  0  0  0  0  0  0  0
  -23.6900  -10.7060    6.8250 C   0  0  0  0  0  0  0  0  0  0  0  0
  -23.3140  -10.6500    5.5000 C   0  0  0  0  0  0  0  0  0  0  0  0
  -22.3590  -11.5230    5.0160 C   0  0  0  0  0  0  0  0  0  0  0  0
  -18.6510  -12.6870    6.4420 N   0  0  0  0  0  0  0  0  0  0  0  0
  -17.8160  -12.6290    7.4270 C   0  0  0  0  0  0  0  0  0  0  0  0
  -17.7640  -13.4980    8.3000 O   0  0  0  0  0  0  0  0  0  0  0  0
  -16.8410  -11.4460    7.5240 C   0  0  2  0  0  0  0  0  0  0  0  0
  -15.6510  -11.7960    8.4210 C   0  0  0  0  0  0  0  0  0  0  0  0
  -17.6510  -10.3200    8.1490 C   0  0  0  0  0  0  0  0  0  0  0  0
  -16.8390   -9.1520    8.6840 C   0  0  0  0  0  0  0  0  0  0  0  0
  -17.7790   -8.0260    9.0700 C   0  0  0  0  0  0  0  0  0  0  0  0
  -16.9920   -6.8680    9.6340 C   0  0  0  0  0  0  0  0  0  0  0  0
  -16.5950   -5.7580    8.9920 C   0  0  0  0  0  0  0  0  0  0  0  0
  -16.8710   -5.4270    7.5350 C   0  0  0  0  0  0  0  0  0  0  0  0
  -15.5470   -5.1710    6.8350 C   0  0  0  0  0  0  0  0  0  0  0  0
  -15.6860   -4.9350    5.3200 C   0  0  0  0  0  0  0  0  0  0  0  0
  -15.6080   -6.1980    4.4390 C   0  0  2  0  0  0  0  0  0  0  0  0
  -14.2080   -6.8040    4.5500 C   0  0  0  0  0  0  0  0  0  0  0  0
  -15.7780   -5.8070    3.0350 N   0  0  0  0  0  0  0  0  0  0  0  0
  -15.8710   -6.6980    2.0290 C   0  0  0  0  0  0  0  0  0  0  0  0
  -15.8370   -7.9140    2.1910 O   0  0  0  0  0  0  0  0  0  0  0  0
  -16.0410   -6.0980    0.6210 C   0  0  2  0  0  0  0  0  0  0  0  0
  -14.7620   -5.4210    0.2080 C   0  0  0  0  0  0  0  0  0  0  0  0
  -13.5930   -6.3360    0.1980 C   0  0  0  0  0  0  0  0  0  0  0  0
  -12.3260   -5.6060   -0.1210 C   0  0  0  0  0  0  0  0  0  0  0  0
  -11.2620   -6.5830   -0.1260 N   0  0  0  0  0  0  0  0  0  0  0  0
  -10.5700   -6.9630    0.9440 C   0  0  0  0  0  0  0  0  0  0  0  0
  -10.8190   -6.4510    2.1580 N   0  0  0  0  0  0  0  0  0  0  0  0
   -9.6170   -7.8820    0.7960 N   0  0  0  0  0  0  0  0  0  0  0  0
   -9.4304   -8.2795   -0.1246 H   0  0  0  0  0  0  0  0  0  0  0  0
  -17.0810   -5.1270    0.6030 N   0  0  0  0  0  0  0  0  0  0  0  0
  -18.2710   -5.3800    1.0880 C   0  0  0  0  0  0  0  0  0  0  0  0
  -18.6430   -6.4950    1.5110 O   0  0  0  0  0  0  0  0  0  0  0  0
  -19.1630   -4.1900    1.1460 C   0  0  2  0  0  0  0  0  0  0  0  0
  -18.7960   -3.3370    2.3770 C   0  0  0  0  0  0  0  0  0  0  0  0
  -18.8400   -4.1240    3.5580 O   0  0  0  0  0  0  0  0  0  0  0  0
  -20.5080   -4.6550    1.2220 N   0  0  0  0  0  0  0  0  0  0  0  0
  -21.1020   -5.2080    0.1760 C   0  0  0  0  0  0  0  0  0  0  0  0
  -20.6080   -5.2400   -0.9520 O   0  0  0  0  0  0  0  0  0  0  0  0
  -22.4210   -5.8390    0.4580 C   0  0  2  0  0  0  0  0  0  0  0  0
  -22.2640   -7.3530    0.5190 C   0  0  0  0  0  0  0  0  0  0  0  0
  -23.5290   -8.0610    0.8860 C   0  0  0  0  0  0  0  0  0  0  0  0
  -23.9120   -8.2050    2.2210 C   0  0  0  0  0  0  0  0  0  0  0  0
  -25.0850   -8.8450    2.5500 C   0  0  0  0  0  0  0  0  0  0  0  0
  -25.8600   -9.3740    1.5670 C   0  0  0  0  0  0  0  0  0  0  0  0
  -26.9880  -10.0300    1.8640 O   0  0  0  0  0  0  0  0  0  0  0  0
  -25.5070   -9.2590    0.2330 C   0  0  0  0  0  0  0  0  0  0  0  0
  -24.3540   -8.5990   -0.0920 C   0  0  0  0  0  0  0  0  0  0  0  0
  -23.3540   -5.4710   -0.5790 N   0  0  0  0  0  0  0  0  0  0  0  0
  -24.4780   -4.8300   -0.3080 C   0  0  0  0  0  0  0  0  0  0  0  0
  -24.8620   -4.6040    0.8490 O   0  0  0  0  0  0  0  0  0  0  0  0
  -25.2910   -4.3800   -1.5120 C   0  0  2  0  0  0  0  0  0  0  0  0
  -25.1210   -2.8700   -1.7410 C   0  0  0  0  0  0  0  0  0  0  0  0
  -25.8000   -2.3600   -3.0120 C   0  0  0  0  0  0  0  0  0  0  0  0
  -26.1300   -0.8670   -2.9630 C   0  0  0  0  0  0  0  0  0  0  0  0
  -24.9240   -0.0370   -3.0240 N   0  0  0  0  0  0  0  0  0  0  0  0
  -24.8440    1.2580   -2.6960 C   0  0  0  0  0  0  0  0  0  0  0  0
  -23.6660    1.8840   -2.7990 N   0  0  0  0  0  0  0  0  0  0  0  0
  -25.9090    1.9320   -2.2540 N   0  0  0  0  0  0  0  0  0  0  0  0
  -26.8084    1.4600   -2.1602 H   0  0  0  0  0  0  0  0  0  0  0  0
  -26.6830   -4.7250   -1.2750 N   0  0  0  0  0  0  0  0  0  0  0  0
  -27.3630   -5.5610   -2.0500 C   0  0  0  0  0  0  0  0  0  0  0  0
  -26.9290   -6.0150   -3.1050 O   0  0  0  0  0  0  0  0  0  0  0  0
  -28.7630   -5.9230   -1.5740 C   0  0  2  0  0  0  0  0  0  0  0  0
  -28.8920   -7.4470   -1.4850 C   0  0  0  0  0  0  0  0  0  0  0  0
  -30.1540   -7.9550   -0.7920 C   0  0  0  0  0  0  0  0  0  0  0  0
  -30.4350   -7.3140    0.5770 C   0  0  0  0  0  0  0  0  0  0  0  0
  -29.2490   -7.3200    1.5430 C   0  0  0  0  0  0  0  0  0  0  0  0
  -29.5130   -6.5050    2.7650 N   0  0  0  0  0  0  0  0  0  0  0  0
  -29.7830   -5.3810   -2.4680 N   0  0  0  0  0  0  0  0  0  0  0  0
  -30.5270   -4.3150   -2.1570 C   0  0  0  0  0  0  0  0  0  0  0  0
  -30.3610   -3.6560   -1.1350 O   0  0  0  0  0  0  0  0  0  0  0  0
  -31.6020   -3.9140   -3.1800 C   0  0  2  0  0  0  0  0  0  0  0  0
  -31.0100   -2.8920   -4.1600 C   0  0  0  0  0  0  0  0  0  0  0  0
  -31.6700   -2.9070   -5.5270 C   0  0  0  0  0  0  0  0  0  0  0  0
  -31.3220   -1.6640   -6.3360 C   0  0  0  0  0  0  0  0  0  0  0  0
  -31.1430   -1.9820   -7.8160 C   0  0  0  0  0  0  0  0  0  0  0  0
  -32.3150   -2.6770   -8.4130 N   0  0  0  0  0  0  0  0  0  0  0  0
  -32.8630   -3.4040   -2.6270 N   0  0  0  0  0  0  0  0  0  0  0  0
  -33.5200   -3.8880   -1.5640 C   0  0  0  0  0  0  0  0  0  0  0  0
  -34.8570   -3.2300   -1.2840 C   0  0  0  0  0  0  0  0  0  0  0  0
  -33.1110   -4.7990   -0.8640 O   0  0  0  0  0  0  0  0  0  0  0  0
  -16.6850   -7.1680    4.8630 C   0  0  0  0  0  0  0  0  0  0  0  0
  -16.2990   -8.2070    5.4200 O   0  0  0  0  0  0  0  0  0  0  0  0
  -17.9210   -6.8610    4.5990 N   0  0  0  0  0  0  0  0  0  0  0  0
  -19.0730   -7.6880    4.9620 C   0  0  1  0  0  0  0  0  0  0  0  0
  -20.4060   -7.0890    4.4780 C   0  0  0  0  0  0  0  0  0  0  0  0
  -20.8220   -5.7540    5.0440 C   0  0  0  0  0  0  0  0  0  0  0  0
  -22.2040   -5.3390    4.5540 C   0  0  0  0  0  0  0  0  0  0  0  0
  -23.2340   -5.8120    5.2460 N   0  0  0  0  0  0  0  0  0  0  0  0
  -22.3450   -4.5900    3.5600 O   0  0  0  0  0  0  0  0  0  0  0  0
  -18.9700   -9.0660    4.3320 C   0  0  0  0  0  0  0  0  0  0  0  0
  -19.2920  -10.0820    4.9720 O   0  0  0  0  0  0  0  0  0  0  0  0
  -18.5470   -9.1030    3.0640 N   0  0  0  0  0  0  0  0  0  0  0  0
  -18.4300  -10.3910    2.3780 C   0  0  1  0  0  0  0  0  0  0  0  0
  -18.1770  -10.2220    0.8650 C   0  0  0  0  0  0  0  0  0  0  0  0
  -19.3480   -9.5450    0.1300 C   0  0  1  0  0  0  0  0  0  0  0  0
  -18.9550   -9.1740   -1.2960 C   0  0  0  0  0  0  0  0  0  0  0  0
  -20.6200  -10.3980    0.0970 C   0  0  0  0  0  0  0  0  0  0  0  0
  -17.3830  -11.2650    3.0310 C   0  0  0  0  0  0  0  0  0  0  0  0
  -17.6230  -12.4660    3.2270 O   0  0  0  0  0  0  0  0  0  0  0  0
  -16.2350  -10.6920    3.3690 N   0  0  0  0  0  0  0  0  0  0  0  0
  -15.1950  -11.4620    4.0250 C   0  0  1  0  0  0  0  0  0  0  0  0
  -13.8640  -10.7100    4.0730 C   0  0  0  0  0  0  0  0  0  0  0  0
  -13.1750  -10.3850    2.7370 C   0  0  1  0  0  0  0  0  0  0  0  0
  -11.8400   -9.6980    2.9940 C   0  0  0  0  0  0  0  0  0  0  0  0
  -12.9450  -11.6130    1.8630 C   0  0  0  0  0  0  0  0  0  0  0  0
  -15.6690  -11.9530    5.4020 C   0  0  0  0  0  0  0  0  0  0  0  0
  -15.5290  -13.1480    5.6930 O   0  0  0  0  0  0  0  0  0  0  0  0
  -16.3020  -11.0800    6.2160 N   0  0  0  0  0  0  0  0  0  0  0  0
  -16.8250  -17.2120    6.5480 C   0  0  0  0  0  0  0  0  0  0  0  0
  -16.8980  -18.4350    6.5150 O   0  0  0  0  0  0  0  0  0  0  0  0
  -16.5920  -16.5340    7.6730 N   0  0  0  0  0  0  0  0  0  0  0  0
  -16.1940  -17.1760    8.9360 C   0  0  1  0  0  0  0  0  0  0  0  0
  -16.0190  -16.1010   10.0140 C   0  0  0  0  0  0  0  0  0  0  0  0
  -17.1840  -18.2330    9.4210 C   0  0  0  0  0  0  0  0  0  0  0  0
  -16.7810  -19.3140    9.8470 O   0  0  0  0  0  0  0  0  0  0  0  0
  -18.3940  -18.0130    9.3900 O   0  0  0  0  0  0  0  0  0  0  0  0
 97 99  2  0
 97 98  1  0
 96 97  1  0
 90 96  1  0
 88 90  1  0
 90 91  1  6
 88 89  2  0
 87 88  1  0
 91 92  1  0
 92 93  1  0
 93 94  1  0
 94 95  1  0
 81 87  1  0
 79 81  1  0
 81 82  1  6
 79 80  2  0
 78 79  1  0
 82 83  1  0
 83 84  1  0
 84 85  1  0
 85 86  1  0
 69 78  1  0
 67 69  1  0
 69 70  1  1
 67 68  2  0
 66 67  1  0
 70 71  1  0
 71 72  1  0
 72 73  1  0
 73 74  1  0
 74 76  2  0
 74 75  1  0
 57 66  1  0
 55 57  1  0
 57 58  1  6
 55 56  2  0
 54 55  1  0
 58 59  1  0
 59 60  2  0
 59 65  1  0
 60 61  1  0
 65 64  2  0
 61 62  2  0
 64 62  1  0
 62 63  1  0
 51 54  1  0
 49 51  1  0
 51 52  1  1
 49 50  2  0
 48 49  1  0
 52 53  1  0
 39 48  1  0
 37 39  1  0
 39 40  1  1
 37 38  2  0
 36 37  1  0
 40 41  1  0
 41 42  1  0
 42 43  1  0
 43 44  1  0
 44 45  1  0
 44 46  2  0
100101  2  0
100 34  1  0
102100  1  0
 34 36  1  0
 34 33  1  0
 34 35  1  6
 33 32  1  0
 31 30  1  0
 32 31  1  0
 30 29  2  0
103102  1  0
109103  1  0
103104  1  6
109110  2  0
111109  1  0
104105  1  0
105106  1  0
106108  2  0
106107  1  0
112111  1  0
117112  1  0
112113  1  6
117118  2  0
119117  1  0
113114  1  0
114115  1  6
114116  1  0
120119  1  0
125120  1  0
120121  1  1
125126  2  0
127125  1  0
121122  1  0
122123  1  1
122124  1  0
 22 23  2  0
 24 22  1  0
 22 21  1  0
127 24  1  0
 24 26  1  0
 24 25  1  1
 26 27  1  0
 29 28  1  0
 28 27  1  0
 21 13  1  0
 13 11  1  0
 13 14  1  6
 11 12  2  0
 11 10  1  0
 14 15  1  0
 15 16  2  0
 15 20  1  0
 16 17  1  0
 20 19  2  0
 17 18  2  0
 19 18  1  0
 10  9  1  0
  9128  1  0
  9  8  1  1
128129  2  0
128130  1  0
  8  7  1  0
  7  6  1  0
  6  5  1  0
  5  3  1  0
  3  4  1  0
  3  2  2  0
130131  1  0
131133  1  0
131132  1  1
133135  1  0
133134  2  0
 76 77  1  0
 46 47  1  0
  2  1  1  0
M  CHG  2  86   1  95   1
M  END
$$$$
