
     RDKit          3D

 33 37  0  0  0  0  0  0  0  0999 V2000
   30.9770   20.5000   10.9610 C   0  0  0  0  0  0  0  0  0  0  0  0
   30.5940   19.9110    9.6270 C   0  0  0  0  0  0  0  0  0  0  0  0
   29.3040   20.1730    9.1710 C   0  0  0  0  0  0  0  0  0  0  0  0
   28.8440   19.6450    7.9620 C   0  0  0  0  0  0  0  0  0  0  0  0
   27.4950   19.9450    7.3520 C   0  0  0  0  0  0  0  0  0  0  0  0
   26.9250   21.0910    7.6930 N   0  0  0  0  0  0  0  0  0  0  0  0
   26.9750   19.2520    6.4690 O   0  0  0  0  0  0  0  0  0  0  0  0
   29.7190   18.8760    7.2160 C   0  0  0  0  0  0  0  0  0  0  0  0
   31.0200   18.5910    7.6650 C   0  0  0  0  0  0  0  0  0  0  0  0
   31.5310   19.0330    8.8740 C   0  0  0  0  0  0  0  0  0  0  0  0
   32.7810   18.9150    9.2770 N   0  0  0  0  0  0  0  0  0  0  0  0
   33.2510   18.5090   10.5140 N   0  0  0  0  0  0  0  0  0  0  0  0
   34.5910   18.7190   10.5080 C   0  0  0  0  0  0  0  0  0  0  0  0
   35.5930   18.4740   11.5610 C   0  0  1  0  0  0  0  0  0  0  0  0
   34.9690   19.0010   12.8760 C   0  0  0  0  0  0  0  0  0  0  0  0
   36.0580   17.0320   11.6400 C   0  0  0  0  0  0  0  0  0  0  0  0
   34.9770   19.4030    9.2390 C   0  0  0  0  0  0  0  0  0  0  0  0
   36.2010   19.9700    8.6010 C   0  0  0  0  0  0  0  0  0  0  0  0
   37.4410   19.9200    9.1930 N   0  0  0  0  0  0  0  0  0  0  0  0
   38.0590   18.7500    9.4070 C   0  0  0  0  0  0  0  0  0  0  0  0
   39.2510   19.0290    9.9770 N   0  0  0  0  0  0  0  0  0  0  0  0
   39.3240   20.3400   10.0770 C   0  0  0  0  0  0  0  0  0  0  0  0
   40.5960   20.9010   10.6380 C   0  0  0  0  0  0  0  0  0  0  0  0
   41.5420   20.1500   11.3540 C   0  0  0  0  0  0  0  0  0  0  0  0
   42.5830   20.9810   11.6530 N   0  0  0  0  0  0  0  0  0  0  0  0
   42.2090   22.2220   11.0970 N   0  0  0  0  0  0  0  0  0  0  0  0
   43.1810   23.3120   11.2990 C   0  0  0  0  0  0  0  0  0  0  0  0
   41.0220   22.1890   10.4530 C   0  0  0  0  0  0  0  0  0  0  0  0
   38.1950   20.9760    9.5450 C   0  0  0  0  0  0  0  0  0  0  0  0
   35.9290   20.5030    7.3280 C   0  0  0  0  0  0  0  0  0  0  0  0
   34.6740   20.5590    6.7070 C   0  0  0  0  0  0  0  0  0  0  0  0
   33.5920   20.0860    7.2860 N   0  0  0  0  0  0  0  0  0  0  0  0
   33.6860   19.5080    8.5120 C   0  0  0  0  0  0  0  0  0  0  0  0
  7  5  2  0
  5  6  1  0
  5  4  1  0
  4  3  2  0
  4  8  1  0
  3  2  1  0
  2  1  1  0
  2 10  2  0
  8  9  2  0
  9 10  1  0
 10 11  1  0
 11 12  1  0
 11 33  1  0
 12 13  2  0
 13 14  1  0
 13 17  1  0
 14 15  1  1
 14 16  1  0
 17 33  2  0
 17 18  1  0
 33 32  1  0
 32 31  2  0
 31 30  1  0
 30 18  2  0
 18 19  1  0
 19 20  1  0
 19 29  1  0
 20 21  2  0
 21 22  1  0
 29 22  2  0
 22 23  1  0
 23 24  1  0
 23 28  2  0
 24 25  2  0
 25 26  1  0
 28 26  1  0
 26 27  1  0
M  END
$$$$
