
     RDKit          3D

 15 14  0  0  0  0  0  0  0  0999 V2000
   46.5065  152.5146   59.6206 C   0  0  0  0  0  0  0  0  0  0  0  0
   47.5541  151.4145   59.5918 C   0  0  0  0  0  0  0  0  0  0  0  0
   47.2659  150.1415   59.8237 C   0  0  0  0  0  0  0  0  0  0  0  0
   46.1136  149.5416   60.5437 C   0  0  0  0  0  0  0  0  0  0  0  0
   45.2190  148.8167   59.6471 O   0  0  0  0  0  0  0  0  0  0  0  0
   44.2398  147.7233   60.3182 P   0  0  1  0  0  0  0  0  0  0  0  0
   43.5215  148.3310   61.4882 O   0  0  0  0  0  0  0  0  0  0  0  0
   43.5176  147.2039   59.1643 O   0  0  0  0  0  0  0  0  0  0  0  0
   45.3125  146.6659   60.8977 O   0  0  0  0  0  0  0  0  0  0  0  0
   46.4687  145.6241   60.3456 P   0  0  2  0  0  0  0  0  0  0  0  0
   45.6204  144.4427   59.7658 O   0  0  0  0  0  0  0  0  0  0  0  0
   47.2743  145.2586   61.6042 O   0  0  0  0  0  0  0  0  0  0  0  0
   47.3350  146.3250   59.2668 O   0  0  0  0  0  0  0  0  0  0  0  0
   48.9903  151.8344   59.1428 C   0  0  0  0  0  0  0  0  0  0  0  0
   49.1885  151.7347   57.7300 O   0  0  0  0  0  0  0  0  0  0  0  0
  6  8  1  6
  6  7  2  0
  6  9  1  0
  5  6  1  0
  9 10  1  0
 10 12  1  1
 10 11  2  0
 10 13  1  0
  2  1  1  0
  4  3  1  0
  3  2  2  0
  4  5  1  0
  2 14  1  0
 14 15  1  0
M  END
$$$$
