
     RDKit          3D

 15 14  0  0  0  0  0  0  0  0999 V2000
   46.7830  152.9770   60.2430 C   0  0  0  0  0  0  0  0  0  0  0  0
   47.7420  152.1190   59.4930 C   0  0  0  0  0  0  0  0  0  0  0  0
   47.7470  150.7850   59.5270 C   0  0  0  0  0  0  0  0  0  0  0  0
   46.7600  149.8780   60.1780 C   0  0  0  0  0  0  0  0  0  0  0  0
   45.8380  149.3210   59.2100 O   0  0  0  0  0  0  0  0  0  0  0  0
   44.5510  148.5310   59.7580 P   0  0  1  0  0  0  0  0  0  0  0  0
   43.8390  149.3050   60.8200 O   0  0  0  0  0  0  0  0  0  0  0  0
   43.8240  148.1580   58.5030 O   0  0  0  0  0  0  0  0  0  0  0  0
   45.2540  147.2570   60.4700 O   0  0  0  0  0  0  0  0  0  0  0  0
   46.3040  146.0470   60.0850 P   0  0  2  0  0  0  0  0  0  0  0  0
   46.6540  146.3490   58.6320 O   0  0  0  0  0  0  0  0  0  0  0  0
   45.4990  144.7680   60.3410 O   0  0  0  0  0  0  0  0  0  0  0  0
   47.5440  146.1130   61.0010 O   0  0  0  0  0  0  0  0  0  0  0  0
   48.8010  152.8600   58.6120 C   0  0  0  0  0  0  0  0  0  0  0  0
   49.4200  151.9960   57.6590 O   0  0  0  0  0  0  0  0  0  0  0  0
  6  8  1  6
  6  7  2  0
  6  9  1  0
  5  6  1  0
  9 10  1  0
 10 12  1  6
 10 11  2  0
 10 13  1  0
  2  1  1  0
  4  3  1  0
  3  2  2  0
  4  5  1  0
  2 14  1  0
 14 15  1  0
M  END
$$$$
