
     RDKit          3D

 25 27  0  0  0  0  0  0  0  0999 V2000
    2.6302    6.4339   24.7060 C   0  0  0  0  0  0  0  0  0  0  0  0
    1.4394    6.9310   25.2040 O   0  0  0  0  0  0  0  0  0  0  0  0
    0.7227    7.9188   24.5704 C   0  0  0  0  0  0  0  0  0  0  0  0
    0.3832    9.1004   25.1753 C   0  0  0  0  0  0  0  0  0  0  0  0
   -0.3756   10.0295   24.5460 C   0  0  0  0  0  0  0  0  0  0  0  0
   -1.2203   10.9136   25.4159 C   0  0  0  0  0  0  0  0  0  0  0  0
   -1.2660   10.7361   26.6469 N   0  0  0  0  0  0  0  0  0  0  0  0
   -0.1693   10.8093   27.4777 N   0  0  0  0  0  0  0  0  0  0  0  0
   -0.1593   10.3705   28.7290 C   0  0  0  0  0  0  0  0  0  0  0  0
   -1.6026   10.2748   29.7447 S   0  0  0  0  0  0  0  0  0  0  0  0
   -2.0985   11.9433   30.1360 C   0  0  0  0  0  0  0  0  0  0  0  0
    1.0759   10.4710   29.2704 N   0  0  0  0  0  0  0  0  0  0  0  0
    1.7196   11.3750   28.3600 N   0  0  0  0  0  0  0  0  0  0  0  0
    0.8121   11.7398   27.3553 C   0  0  0  0  0  0  0  0  0  0  0  0
    0.7673   13.1938   26.8457 C   0  0  0  0  0  0  0  0  0  0  0  0
   -0.4496   13.9054   26.6701 C   0  0  0  0  0  0  0  0  0  0  0  0
   -0.5143   15.3399   26.7790 C   0  0  0  0  0  0  0  0  0  0  0  0
    0.6551   16.0230   26.9516 C   0  0  0  0  0  0  0  0  0  0  0  0
    1.8877   15.3420   27.0121 C   0  0  0  0  0  0  0  0  0  0  0  0
    1.9600   13.9616   26.9596 C   0  0  0  0  0  0  0  0  0  0  0  0
   -0.4908    9.8965   23.1628 C   0  0  0  0  0  0  0  0  0  0  0  0
   -0.4883   11.3326   22.0238 Br  0  0  0  0  0  0  0  0  0  0  0  0
   -0.2595    8.7031   22.4469 C   0  0  0  0  0  0  0  0  0  0  0  0
    0.4162    7.7820   23.2046 C   0  0  0  0  0  0  0  0  0  0  0  0
    0.8345    6.7911   22.5373 O   0  0  0  0  0  0  0  0  0  0  0  0
 23 24  1  0
  3 24  1  0
 24 25  2  0
 21 23  2  0
  5 21  1  0
 21 22  1  0
  5  4  2  0
  6  5  1  0
  4  3  1  0
  3  2  1  0
  2  1  1  0
  7  6  2  0
  8  9  4  0
  9 12  4  0
  9 10  1  0
  7  8  1  0
  8 14  4  0
 14 13  4  0
 14 15  1  0
 13 12  4  0
 10 11  1  0
 15 16  4  0
 15 20  4  0
 16 17  4  0
 17 18  4  0
 18 19  4  0
 19 20  4  0
M  END
$$$$
