
     RDKit          3D

 25 27  0  0  0  0  0  0  0  0999 V2000
   -0.5550   10.5110   20.2180 C   0  0  0  0  0  0  0  0  0  0  0  0
   -0.0030    9.2370   20.5540 O   0  0  0  0  0  0  0  0  0  0  0  0
    0.0960    8.8050   21.8600 C   0  0  0  0  0  0  0  0  0  0  0  0
   -0.2420    9.6520   22.9090 C   0  0  0  0  0  0  0  0  0  0  0  0
   -0.1580    9.2080   24.2230 C   0  0  0  0  0  0  0  0  0  0  0  0
   -0.5250   10.1810   25.2790 C   0  0  0  0  0  0  0  0  0  0  0  0
   -0.5060   11.4200   25.0330 N   0  0  0  0  0  0  0  0  0  0  0  0
   -0.5980   12.3770   25.9760 N   0  0  0  0  0  0  0  0  0  0  0  0
   -0.4280   12.1550   27.2960 C   0  0  0  0  0  0  0  0  0  0  0  0
   -0.0580   10.6110   28.0400 S   0  0  0  0  0  0  0  0  0  0  0  0
   -0.4930   10.6850   29.7680 C   0  0  0  0  0  0  0  0  0  0  0  0
   -0.5720   13.2750   28.0320 N   0  0  0  0  0  0  0  0  0  0  0  0
   -0.8600   14.2680   27.0570 N   0  0  0  0  0  0  0  0  0  0  0  0
   -0.8840   13.7160   25.7840 C   0  0  0  0  0  0  0  0  0  0  0  0
   -1.2150   14.5350   24.5470 C   0  0  0  0  0  0  0  0  0  0  0  0
   -1.5280   13.9600   23.2910 C   0  0  0  0  0  0  0  0  0  0  0  0
   -1.8580   14.7480   22.1570 C   0  0  0  0  0  0  0  0  0  0  0  0
   -1.8990   16.1300   22.3000 C   0  0  0  0  0  0  0  0  0  0  0  0
   -1.6180   16.7160   23.5360 C   0  0  0  0  0  0  0  0  0  0  0  0
   -1.2990   15.9320   24.6580 C   0  0  0  0  0  0  0  0  0  0  0  0
    0.2430    7.8730   24.4240 C   0  0  0  0  0  0  0  0  0  0  0  0
    0.3690    7.1670   26.0890 Br  0  0  0  0  0  0  0  0  0  0  0  0
    0.5620    6.9860   23.4360 C   0  0  0  0  0  0  0  0  0  0  0  0
    0.4970    7.4930   22.1530 C   0  0  0  0  0  0  0  0  0  0  0  0
    0.8370    6.6740   21.2380 O   0  0  0  0  0  0  0  0  0  0  0  0
 23 24  1  0
  3 24  1  0
 24 25  2  0
 21 23  2  0
  5 21  1  0
 21 22  1  0
  5  4  2  0
  6  5  1  0
  4  3  1  0
  3  2  1  0
  2  1  1  0
  7  6  2  0
  8  9  1  0
  9 12  2  0
  9 10  1  0
  7  8  1  0
  8 14  1  0
 14 13  2  0
 14 15  1  0
 13 12  1  0
 10 11  1  0
 15 16  2  0
 15 20  1  0
 16 17  1  0
 17 18  2  0
 18 19  1  0
 19 20  2  0
M  END
$$$$
