
     RDKit          3D

 36 36  0  0  0  0  0  0  0  0999 V2000
    3.3684    5.4086  -77.4440 O   0  0  0  0  0  0  0  0  0  0  0  0
    2.6744    5.8034  -78.7124 P   0  0  1  0  0  0  0  0  0  0  0  0
    3.6828    6.2634  -79.7170 O   0  0  0  0  0  0  0  0  0  0  0  0
    2.0088    4.5870  -79.2792 O   0  0  0  0  0  0  0  0  0  0  0  0
    1.5514    7.0187  -78.3769 O   0  0  0  0  0  0  0  0  0  0  0  0
    2.7123    8.4325  -78.4289 C   0  0  1  0  0  0  0  0  0  0  0  0
    1.6746    9.5457  -78.3623 C   0  0  1  0  0  0  0  0  0  0  0  0
    1.3567    9.9461  -79.6660 O   0  0  0  0  0  0  0  0  0  0  0  0
    2.5518    9.4904  -80.7212 P   0  0  1  0  0  0  0  0  0  0  0  0
    3.8283    9.2540  -79.9897 O   0  0  0  0  0  0  0  0  0  0  0  0
    2.1357    8.2200  -81.4189 O   0  0  0  0  0  0  0  0  0  0  0  0
    2.6970   10.5763  -81.7508 O   0  0  0  0  0  0  0  0  0  0  0  0
    0.4326    8.9224  -77.7122 C   0  0  1  0  0  0  0  0  0  0  0  0
   -0.5291    8.6599  -78.6915 O   0  0  0  0  0  0  0  0  0  0  0  0
   -1.3012    7.1947  -78.4840 P   0  0  2  0  0  0  0  0  0  0  0  0
   -0.9727    6.6574  -77.0656 O   0  0  0  0  0  0  0  0  0  0  0  0
   -0.7385    6.2202  -79.4918 O   0  0  0  0  0  0  0  0  0  0  0  0
   -2.7550    7.3930  -78.7064 O   0  0  0  0  0  0  0  0  0  0  0  0
    0.4995    7.7102  -76.7189 C   0  0  1  0  0  0  0  0  0  0  0  0
    0.2886    6.5048  -77.5186 O   0  0  0  0  0  0  0  0  0  0  0  0
    0.3716    6.6569  -79.1649 P   0  0  1  0  0  0  0  0  0  0  0  0
    0.3214    5.2682  -79.8048 O   0  0  0  0  0  0  0  0  0  0  0  0
   -0.7808    7.4492  -79.6649 O   0  0  0  0  0  0  0  0  0  0  0  0
    1.6580    7.3427  -79.5630 O   0  0  0  0  0  0  0  0  0  0  0  0
    1.8776    7.6137  -76.0782 C   0  0  1  0  0  0  0  0  0  0  0  0
    1.5122    8.3390  -78.6558 O   0  0  0  0  0  0  0  0  0  0  0  0
    2.6637    7.2850  -78.8895 P   0  0  1  0  0  0  0  0  0  0  0  0
    3.9654    7.6124  -78.3916 O   0  0  0  0  0  0  0  0  0  0  0  0
    3.2072    8.3395  -80.5757 O   0  0  0  0  0  0  0  0  0  0  0  0
    2.3782    6.1603  -79.8366 O   0  0  0  0  0  0  0  0  0  0  0  0
    3.1081    7.9987  -76.9337 C   0  0  1  0  0  0  0  0  0  0  0  0
    3.6087    6.6150  -77.0549 O   0  0  0  0  0  0  0  0  0  0  0  0
    2.5805    5.3704  -76.4921 P   0  0  1  0  0  0  0  0  0  0  0  0
    2.4024    4.3896  -77.5836 O   0  0  0  0  0  0  0  0  0  0  0  0
    3.2123    4.7011  -75.2839 O   0  0  0  0  0  0  0  0  0  0  0  0
    1.2158    5.9393  -76.1224 O   0  0  0  0  0  0  0  0  0  0  0  0
 25 19  1  0
 25 31  1  0
 25 26  1  6
 19 13  1  0
 19 20  1  1
 13  7  1  0
 13 14  1  6
  7  6  1  0
  7  8  1  1
  6 31  1  0
  6  5  1  6
 31 32  1  6
 26 27  1  0
 27 29  1  1
 27 28  2  0
 27 30  1  0
 20 21  1  0
 21 23  1  6
 21 24  1  0
 21 22  2  0
 14 15  1  0
 15 16  2  0
 15 17  1  6
 15 18  1  0
  8  9  1  0
  9 10  2  0
  9 11  1  1
  9 12  1  0
  5  2  1  0
  2  1  2  0
  2  3  1  1
  2  4  1  0
 32 33  1  0
 33 35  1  1
 33 34  2  0
 33 36  1  0
M  END
$$$$
