
     RDKit          3D

 26 27  0  0  0  0  0  0  0  0999 V2000
  -15.2053   27.5868  -19.3063 C   0  0  0  0  0  0  0  0  0  0  0  0
  -14.3192   27.7607  -17.7516 S   0  0  0  0  0  0  0  0  0  0  0  0
  -14.8385   29.4521  -17.2346 C   0  0  2  0  0  0  0  0  0  0  0  0
  -14.4831   30.3726  -18.2750 O   0  0  0  0  0  0  0  0  0  0  0  0
  -15.1782   31.5900  -18.1431 C   0  0  1  0  0  0  0  0  0  0  0  0
  -16.6098   31.3580  -18.5706 C   0  0  0  0  0  0  0  0  0  0  0  0
  -17.3120   30.5934  -17.5840 O   0  0  0  0  0  0  0  0  0  0  0  0
  -17.4794   31.3897  -16.3918 C   0  0  1  0  0  0  0  0  0  0  0  0
  -16.8147   30.7676  -15.2552 O   0  0  0  0  0  0  0  0  0  0  0  0
  -16.9298   31.6320  -14.0589 C   0  0  2  0  0  0  0  0  0  0  0  0
  -18.4125   31.9338  -13.7298 C   0  0  0  0  0  0  0  0  0  0  0  0
  -16.2560   32.9470  -14.3107 C   0  0  2  0  0  0  0  0  0  0  0  0
  -16.3155   33.7955  -13.1128 O   0  0  0  0  0  0  0  0  0  0  0  0
  -16.9087   33.6391  -15.4535 C   0  0  2  0  0  0  0  0  0  0  0  0
  -18.2736   33.9509  -15.1446 O   0  0  0  0  0  0  0  0  0  0  0  0
  -16.8219   32.7463  -16.6744 C   0  0  2  0  0  0  0  0  0  0  0  0
  -17.5916   33.3556  -17.7535 O   0  0  0  0  0  0  0  0  0  0  0  0
  -14.9802   32.2972  -16.7767 C   0  0  2  0  0  0  0  0  0  0  0  0
  -13.6618   32.7956  -16.5411 O   0  0  0  0  0  0  0  0  0  0  0  0
  -15.2703   31.3173  -15.6152 C   0  0  2  0  0  0  0  0  0  0  0  0
  -15.1714   32.0119  -14.3463 O   0  0  0  0  0  0  0  0  0  0  0  0
  -14.4546   30.0114  -15.7979 C   0  0  2  0  0  0  0  0  0  0  0  0
  -13.0145   30.3160  -15.6674 N   0  0  0  0  0  0  0  0  0  0  0  0
  -12.2867   30.0103  -14.5669 C   0  0  0  0  0  0  0  0  0  0  0  0
  -12.2929   31.1219  -13.5198 C   0  0  0  0  0  0  0  0  0  0  0  0
  -11.4369   29.1166  -14.4931 O   0  0  0  0  0  0  0  0  0  0  0  0
 22  3  1  0
  3  4  1  0
  3  2  1  6
 22 20  1  0
 22 23  1  1
 20 18  1  0
 20 21  1  1
 18  5  1  0
 18 19  1  6
  5  6  1  6
  4  5  1  0
  6  7  1  0
 24 25  1  0
 24 23  1  0
 24 26  2  0
  8  7  1  1
  8 16  1  0
  8  9  1  0
 16 14  1  0
 16 17  1  6
 14 12  1  0
 14 15  1  6
 12 10  1  0
 12 13  1  6
 10 11  1  1
 10  9  1  0
  2  1  1  0
M  END
$$$$
