
     RDKit          3D

 21 23  0  0  0  0  0  0  0  0999 V2000
   -5.5665   -2.3523   27.4633 O   0  0  0  0  0  0  0  0  0  0  0  0
   -5.6790   -1.9276   28.5800 C   0  0  0  0  0  0  0  0  0  0  0  0
   -5.1596   -0.8265   28.9256 N   0  0  0  0  0  0  0  0  0  0  0  0
   -4.4968    0.0720   28.0497 C   0  0  0  0  0  0  0  0  0  0  0  0
   -3.0082    0.0718   28.4476 C   0  0  1  0  0  0  0  0  0  0  0  0
   -2.2265   -0.9814   27.7257 C   0  0  0  0  0  0  0  0  0  0  0  0
   -2.2749   -0.7340   26.2717 C   0  0  0  0  0  0  0  0  0  0  0  0
   -1.7937    0.6148   25.9515 C   0  0  0  0  0  0  0  0  0  0  0  0
   -2.6067    1.6147   26.7234 C   0  0  0  0  0  0  0  0  0  0  0  0
   -2.4101    1.3774   28.1789 C   0  0  0  0  0  0  0  0  0  0  0  0
   -5.8548   -2.9163   29.6452 C   0  0  0  0  0  0  0  0  0  0  0  0
   -6.3259   -4.1641   29.3792 C   0  0  0  0  0  0  0  0  0  0  0  0
   -6.6718   -4.9673   30.4525 C   0  0  0  0  0  0  0  0  0  0  0  0
   -7.6076   -5.7870   30.2688 O   0  0  0  0  0  0  0  0  0  0  0  0
   -6.4141   -4.5230   31.6848 C   0  0  0  0  0  0  0  0  0  0  0  0
   -6.3300   -5.4244   32.7217 C   0  0  0  0  0  0  0  0  0  0  0  0
   -6.0046   -4.9794   33.9810 C   0  0  0  0  0  0  0  0  0  0  0  0
   -5.6902   -3.6914   34.2388 C   0  0  0  0  0  0  0  0  0  0  0  0
   -5.6607   -2.8222   33.1828 C   0  0  0  0  0  0  0  0  0  0  0  0
   -5.9611   -3.2664   31.9255 C   0  0  0  0  0  0  0  0  0  0  0  0
   -5.7263   -2.5012   30.9012 O   0  0  0  0  0  0  0  0  0  0  0  0
 21 20  4  0
 20 19  4  0
 20 15  4  0
  5  4  1  6
  5  6  1  0
  5 10  1  0
  3  4  1  0
  6  7  1  0
  7  8  1  0
  9  8  1  0
 10  9  1  0
  2  3  1  0
  2  1  2  0
 11  2  1  0
 11 21  4  0
 11 12  4  0
 19 18  4  0
 18 17  4  0
 17 16  4  0
 16 15  4  0
 15 13  4  0
 13 14  2  0
 13 12  4  0
M  END
$$$$
