
     RDKit          3D

 26 29  0  0  0  0  0  0  0  0999 V2000
  -16.0210   29.3400   54.4520 C   0  0  0  0  0  0  0  0  0  0  0  0
  -14.5790   28.9380   54.4000 C   0  0  0  0  0  0  0  0  0  0  0  0
  -14.1740   27.8640   53.8610 N   0  0  0  0  0  0  0  0  0  0  0  0
  -12.7140   27.6870   53.9730 C   0  0  2  0  0  0  0  0  0  0  0  0
  -12.3430   26.3420   54.5030 C   0  0  0  0  0  0  0  0  0  0  0  0
  -11.7700   25.3520   53.7050 C   0  0  0  0  0  0  0  0  0  0  0  0
  -11.7830   24.2640   54.5210 N   0  0  0  0  0  0  0  0  0  0  0  0
  -11.1780   22.7720   54.0310 S   0  0  2  0  0  0  0  0  0  0  0  0
  -10.5140   22.1070   55.1220 O   0  0  0  0  0  0  0  0  0  0  0  0
  -10.2040   22.9400   53.0000 O   0  0  0  0  0  0  0  0  0  0  0  0
  -12.3770   21.8080   53.5010 C   0  0  0  0  0  0  0  0  0  0  0  0
  -12.7440   20.6930   54.2570 C   0  0  0  0  0  0  0  0  0  0  0  0
  -13.7990   19.8830   53.8470 C   0  0  0  0  0  0  0  0  0  0  0  0
  -14.4890   20.1760   52.6790 C   0  0  0  0  0  0  0  0  0  0  0  0
  -14.1300   21.2760   51.9160 C   0  0  0  0  0  0  0  0  0  0  0  0
  -13.0670   22.0720   52.3070 C   0  0  0  0  0  0  0  0  0  0  0  0
  -12.6220   23.4480   51.2580 Cl  0  0  0  0  0  0  0  0  0  0  0  0
  -12.5570   24.4620   55.6400 C   0  0  0  0  0  0  0  0  0  0  0  0
  -12.9850   23.6850   56.7070 C   0  0  0  0  0  0  0  0  0  0  0  0
  -13.7760   24.2500   57.7130 C   0  0  0  0  0  0  0  0  0  0  0  0
  -14.1450   25.5950   57.6610 C   0  0  0  0  0  0  0  0  0  0  0  0
  -15.0000   26.1900   58.7440 C   0  0  0  0  0  0  0  0  0  0  0  0
  -13.7490   26.3750   56.5810 C   0  0  0  0  0  0  0  0  0  0  0  0
  -13.0050   25.7840   55.5680 C   0  0  0  0  0  0  0  0  0  0  0  0
  -12.3600   28.8800   54.9120 C   0  0  0  0  0  0  0  0  0  0  0  0
  -13.6180   29.6030   54.9940 N   0  0  0  0  0  0  0  0  0  0  0  0
  8 11  1  0
 11 12  1  0
 11 16  2  0
 12 13  2  0
 13 14  1  0
  4  5  1  1
  4  3  1  0
  4 25  1  0
  3  2  2  0
  2 26  1  0
  2  1  1  0
 21 22  1  0
  8  9  2  0
  8 10  2  0
  8  7  1  1
 16 17  1  0
 16 15  1  0
 15 14  2  0
  6  7  1  0
 18  7  1  0
  5  6  2  0
 18 19  2  0
 24 18  1  0
 19 20  1  0
 23 24  2  0
 24  5  1  0
 23 21  1  0
 21 20  2  0
 25 26  1  0
M  END
$$$$
