
     RDKit          3D

 25 27  0  0  0  0  0  0  0  0999 V2000
    8.0232    7.3980   83.7762 C   0  0  0  0  0  0  0  0  0  0  0  0
    6.5379    7.6872   83.8624 C   0  0  0  0  0  0  0  0  0  0  0  0
    5.6558    6.8324   83.6189 C   0  0  0  0  0  0  0  0  0  0  0  0
    4.4595    7.1911   82.8335 C   0  0  0  0  0  0  0  0  0  0  0  0
    3.4208    7.8112   83.6788 N   0  0  0  0  0  0  0  0  0  0  0  0
    3.3600    9.1684   83.7961 C   0  0  0  0  0  0  0  0  0  0  0  0
    2.1473    9.8181   83.8213 C   0  0  0  0  0  0  0  0  0  0  0  0
    2.0248   11.2662   83.5146 C   0  0  0  0  0  0  0  0  0  0  0  0
    0.8275   11.8161   83.0018 C   0  0  0  0  0  0  0  0  0  0  0  0
    0.5630   13.1712   83.1957 C   0  0  0  0  0  0  0  0  0  0  0  0
    1.5405   13.9945   83.6810 C   0  0  0  0  0  0  0  0  0  0  0  0
    2.7434   13.4731   84.1768 C   0  0  0  0  0  0  0  0  0  0  0  0
    3.7414   14.3306   84.9361 C   0  0  0  0  0  0  0  0  0  0  0  0
    3.3791   14.7938   86.0103 O   0  0  0  0  0  0  0  0  0  0  0  0
    4.9144   14.7430   84.4722 N   0  0  0  0  0  0  0  0  0  0  0  0
    5.0567   16.2026   84.3317 C   0  0  0  0  0  0  0  0  0  0  0  0
    5.9855   13.8327   84.1423 C   0  0  0  0  0  0  0  0  0  0  0  0
    3.0164   12.1309   84.0392 C   0  0  0  0  0  0  0  0  0  0  0  0
    0.9298    8.9761   84.0108 C   0  0  0  0  0  0  0  0  0  0  0  0
   -0.4744    9.2316   84.0390 C   0  0  0  0  0  0  0  0  0  0  0  0
   -1.1232    8.0619   84.0318 C   0  0  0  0  0  0  0  0  0  0  0  0
   -0.2057    7.0619   83.9845 N   0  0  0  0  0  0  0  0  0  0  0  0
    1.0638    7.5753   84.0366 C   0  0  0  0  0  0  0  0  0  0  0  0
    2.3456    7.0360   83.9546 C   0  0  0  0  0  0  0  0  0  0  0  0
    2.4825    5.8188   83.9148 O   0  0  0  0  0  0  0  0  0  0  0  0
  4  3  1  0
  5  4  1  0
 24 23  4  0
  5 24  4  0
 24 25  2  0
  6  7  4  0
  6  5  4  0
  7 19  4  0
  7  8  1  0
 19 20  4  0
 19 23  4  0
 20 21  4  0
 21 22  4  0
 23 22  4  0
  3  2  2  3
  2  1  1  0
  8  9  4  0
  8 18  4  0
  9 10  4  0
 10 11  4  0
 11 12  4  0
 12 18  4  0
 12 13  1  0
 13 14  2  0
 13 15  1  0
 15 16  1  0
 15 17  1  0
M  END
$$$$
