
     RDKit          3D

 40 45  0  0  0  0  0  0  0  0999 V2000
  -20.7843    7.1602  -19.9130 C   0  0  0  0  0  0  0  0  0  0  0  0
  -20.6865    7.5142  -21.3499 C   0  0  0  0  0  0  0  0  0  0  0  0
  -20.7036    8.7253  -21.6910 O   0  0  0  0  0  0  0  0  0  0  0  0
  -20.8144    6.4335  -22.1746 N   0  0  0  0  0  0  0  0  0  0  0  0
  -21.3761    6.5589  -23.4137 C   0  0  0  0  0  0  0  0  0  0  0  0
  -22.0755    5.4534  -23.7950 C   0  0  0  0  0  0  0  0  0  0  0  0
  -23.1602    5.6512  -24.7013 C   0  0  0  0  0  0  0  0  0  0  0  0
  -23.2717    6.8435  -25.3678 C   0  0  0  0  0  0  0  0  0  0  0  0
  -23.8061    7.1234  -26.5195 O   0  0  0  0  0  0  0  0  0  0  0  0
  -23.2469    8.1959  -26.9623 C   0  0  0  0  0  0  0  0  0  0  0  0
  -22.7346    8.1595  -28.2097 C   0  0  0  0  0  0  0  0  0  0  0  0
  -23.1141    7.1026  -29.0313 C   0  0  0  0  0  0  0  0  0  0  0  0
  -22.1571    6.2048  -29.4748 C   0  0  0  0  0  0  0  0  0  0  0  0
  -20.8141    6.5527  -29.3824 N   0  0  0  0  0  0  0  0  0  0  0  0
  -20.4080    7.6909  -28.7230 C   0  0  0  0  0  0  0  0  0  0  0  0
  -19.1471    7.6426  -28.0871 C   0  0  0  0  0  0  0  0  0  0  0  0
  -19.0382    8.5302  -27.2053 O   0  0  0  0  0  0  0  0  0  0  0  0
  -18.0907    7.1019  -28.7443 N   0  0  0  0  0  0  0  0  0  0  0  0
  -17.1052    8.0830  -29.3634 C   0  0  0  0  0  0  0  0  0  0  0  0
  -17.4957    8.3296  -30.7965 C   0  0  0  0  0  0  0  0  0  0  0  0
  -17.4457    7.0498  -31.6072 N   0  0  2  0  0  0  0  0  0  0  0  0
  -17.8219    7.3700  -33.0109 C   0  0  2  0  0  0  0  0  0  0  0  0
  -17.9778    6.2514  -33.7968 C   0  0  0  0  0  0  0  0  0  0  0  0
  -16.9423    5.3580  -33.8934 C   0  0  0  0  0  0  0  0  0  0  0  0
  -17.1791    4.0191  -34.0758 C   0  0  0  0  0  0  0  0  0  0  0  0
  -18.4345    3.5770  -34.3162 C   0  0  0  0  0  0  0  0  0  0  0  0
  -19.5415    4.4354  -34.3834 C   0  0  0  0  0  0  0  0  0  0  0  0
  -19.2660    5.7757  -34.1764 C   0  0  0  0  0  0  0  0  0  0  0  0
  -16.7924    8.3009  -33.6814 C   0  0  0  0  0  0  0  0  0  0  0  0
  -15.5259    8.0314  -33.7997 N   0  0  0  0  0  0  0  0  0  0  0  0
  -15.1366    8.8720  -34.5186 N   0  0  0  0  0  0  0  0  0  0  0  0
  -15.8491    9.8765  -34.1694 N   0  0  0  0  0  0  0  0  0  0  0  0
  -15.2983   10.9491  -33.3067 C   0  0  0  0  0  0  0  0  0  0  0  0
  -16.9889    9.5323  -34.1151 N   0  0  0  0  0  0  0  0  0  0  0  0
  -18.5084    6.1714  -31.0220 C   0  0  0  0  0  0  0  0  0  0  0  0
  -18.2098    5.8387  -29.5618 C   0  0  0  0  0  0  0  0  0  0  0  0
  -21.3735    8.6325  -28.3596 C   0  0  0  0  0  0  0  0  0  0  0  0
  -22.7494    8.8146  -25.8946 N   0  0  0  0  0  0  0  0  0  0  0  0
  -22.5031    7.8655  -25.0072 C   0  0  0  0  0  0  0  0  0  0  0  0
  -21.4309    7.6654  -24.1863 C   0  0  0  0  0  0  0  0  0  0  0  0
  5  6  4  0
  7  6  4  0
 40  5  4  0
  5  4  1  0
 39 40  4  0
 39  8  4  0
 38 39  4  0
  8  7  4  0
  9  8  4  0
 11 12  4  0
 12 13  4  0
 37 15  4  0
 11 37  4  0
 15 14  4  0
 15 16  1  0
  2  1  1  0
  2  3  2  0
  4  2  1  0
 10  9  4  0
 10 38  4  0
 10 11  1  0
 13 14  4  0
 16 17  2  0
 16 18  1  0
 18 19  1  0
 18 36  1  0
 19 20  1  0
 21 20  1  6
 36 35  1  0
 35 21  1  0
 21 22  1  0
 22 29  1  6
 22 23  1  0
 29 34  4  0
 29 30  4  0
 34 32  4  0
 30 31  4  0
 31 32  4  0
 32 33  1  0
 23 24  4  0
 23 28  4  0
 24 25  4  0
 25 26  4  0
 26 27  4  0
 27 28  4  0
M  CHG  1  21   1
M  END
$$$$
