
     RDKit          3D

 40 45  0  0  0  0  0  0  0  0999 V2000
   10.9180   39.7690   17.7420 C   0  0  0  0  0  0  0  0  0  0  0  0
   11.8180   40.3840   18.8110 C   0  0  0  0  0  0  0  0  0  0  0  0
   11.3710   40.6220   19.9320 O   0  0  0  0  0  0  0  0  0  0  0  0
   13.0750   40.6080   18.3800 N   0  0  0  0  0  0  0  0  0  0  0  0
   14.0490   41.1320   19.1400 C   0  0  0  0  0  0  0  0  0  0  0  0
   15.3300   41.0530   18.6220 C   0  0  0  0  0  0  0  0  0  0  0  0
   16.3870   41.5740   19.3450 C   0  0  0  0  0  0  0  0  0  0  0  0
   16.1680   42.1440   20.5210 C   0  0  0  0  0  0  0  0  0  0  0  0
   17.0190   42.6960   21.3640 O   0  0  0  0  0  0  0  0  0  0  0  0
   16.3530   43.1200   22.3700 C   0  0  0  0  0  0  0  0  0  0  0  0
   16.9340   43.7300   23.3990 C   0  0  0  0  0  0  0  0  0  0  0  0
   18.3210   43.7080   23.4510 C   0  0  0  0  0  0  0  0  0  0  0  0
   18.9770   44.3320   24.5020 C   0  0  0  0  0  0  0  0  0  0  0  0
   18.2380   44.9710   25.4950 N   0  0  0  0  0  0  0  0  0  0  0  0
   16.8960   45.0220   25.4460 C   0  0  0  0  0  0  0  0  0  0  0  0
   16.2110   45.6640   26.4850 C   0  0  0  0  0  0  0  0  0  0  0  0
   15.4540   44.9800   27.1690 O   0  0  0  0  0  0  0  0  0  0  0  0
   16.4520   46.9610   26.7920 N   0  0  0  0  0  0  0  0  0  0  0  0
   15.7560   47.5940   27.9320 C   0  0  0  0  0  0  0  0  0  0  0  0
   16.7250   48.4600   28.7430 C   0  0  0  0  0  0  0  0  0  0  0  0
   17.4210   49.4590   27.9120 N   0  0  1  0  0  0  0  0  0  0  0  0
   18.3290   50.2790   28.7500 C   0  0  2  0  0  0  0  0  0  0  0  0
   17.7030   50.8000   29.8810 C   0  0  0  0  0  0  0  0  0  0  0  0
   18.1760   50.4320   31.1340 C   0  0  0  0  0  0  0  0  0  0  0  0
   17.5690   50.9330   32.2760 C   0  0  0  0  0  0  0  0  0  0  0  0
   16.4950   51.8090   32.1680 C   0  0  0  0  0  0  0  0  0  0  0  0
   16.0230   52.1870   30.9160 C   0  0  0  0  0  0  0  0  0  0  0  0
   16.6310   51.6850   29.7700 C   0  0  0  0  0  0  0  0  0  0  0  0
   18.9660   51.4330   27.9800 C   0  0  0  0  0  0  0  0  0  0  0  0
   20.0960   52.0310   28.2880 N   0  0  0  0  0  0  0  0  0  0  0  0
   20.2360   52.8150   27.5140 N   0  0  0  0  0  0  0  0  0  0  0  0
   19.2830   52.8250   26.6730 N   0  0  0  0  0  0  0  0  0  0  0  0
   19.2460   53.7730   25.5550 C   0  0  0  0  0  0  0  0  0  0  0  0
   18.4970   52.0230   26.9060 N   0  0  0  0  0  0  0  0  0  0  0  0
   18.2130   48.7270   26.9090 C   0  0  0  0  0  0  0  0  0  0  0  0
   17.3640   47.8280   26.0070 C   0  0  0  0  0  0  0  0  0  0  0  0
   16.2170   44.3820   24.4020 C   0  0  0  0  0  0  0  0  0  0  0  0
   15.0600   42.8540   22.2130 N   0  0  0  0  0  0  0  0  0  0  0  0
   14.9400   42.2330   21.0380 C   0  0  0  0  0  0  0  0  0  0  0  0
   13.8840   41.7480   20.3800 C   0  0  0  0  0  0  0  0  0  0  0  0
  5  6  2  0
  7  6  1  0
 40  5  1  0
  5  4  1  0
 39 40  2  0
 39  8  1  0
 38 39  1  0
  8  7  2  0
  9  8  1  0
 11 12  2  0
 12 13  1  0
 37 15  2  0
 11 37  1  0
 15 14  1  0
 15 16  1  0
  2  1  1  0
  2  3  2  0
  4  2  1  0
 10  9  1  0
 10 38  2  0
 10 11  1  0
 13 14  2  0
 16 17  2  0
 16 18  1  0
 18 19  1  0
 18 36  1  0
 19 20  1  0
 21 20  1  1
 36 35  1  0
 35 21  1  0
 21 22  1  0
 22 29  1  6
 22 23  1  0
 29 34  2  0
 29 30  1  0
 34 32  1  0
 30 31  2  0
 31 32  1  0
 32 33  1  0
 23 24  2  0
 23 28  1  0
 24 25  1  0
 25 26  2  0
 26 27  1  0
 27 28  2  0
M  CHG  1  21   1
M  END
$$$$
