
     RDKit          3D

 27 29  0  0  0  0  0  0  0  0999 V2000
   90.6400   42.2800  103.3960 N   0  0  0  0  0  0  0  0  0  0  0  0
   91.3680   41.2490  102.9440 C   0  0  0  0  0  0  0  0  0  0  0  0
   91.0370   40.5650  101.8310 N   0  0  0  0  0  0  0  0  0  0  0  0
   91.7870   39.5470  101.3580 C   0  0  0  0  0  0  0  0  0  0  0  0
   92.9120   39.1190  101.9720 N   0  0  0  0  0  0  0  0  0  0  0  0
   93.3290   39.7310  103.1130 C   0  0  0  0  0  0  0  0  0  0  0  0
   92.5680   40.8460  103.6790 C   0  0  0  0  0  0  0  0  0  0  0  0
   93.2050   41.2610  104.8020 N   0  0  0  0  0  0  0  0  0  0  0  0
   94.3010   40.4720  104.9400 C   0  0  0  0  0  0  0  0  0  0  0  0
   94.3630   39.5710  103.9240 N   0  0  0  0  0  0  0  0  0  0  0  0
   95.3860   38.5110  103.7520 C   0  0  2  0  0  0  0  0  0  0  0  0
   96.1820   38.4830  104.9400 O   0  0  0  0  0  0  0  0  0  0  0  0
   97.5590   38.7050  104.5980 C   0  0  2  0  0  0  0  0  0  0  0  0
   98.2550   39.4090  105.7570 C   0  0  0  0  0  0  0  0  0  0  0  0
   97.9130   40.7890  105.7450 O   0  0  0  0  0  0  0  0  0  0  0  0
   98.9070   41.8180  106.4760 P   0  0  1  0  0  0  0  0  0  0  0  0
   98.2980   43.1930  106.4900 O   0  0  0  0  0  0  0  0  0  0  0  0
   99.2800   41.1930  107.8000 O   0  0  0  0  0  0  0  0  0  0  0  0
  100.2150   41.7600  105.5240 O   0  0  0  0  0  0  0  0  0  0  0  0
  100.3410   42.3370  104.0140 P   0  0  2  0  0  0  0  0  0  0  0  0
  100.3760   41.0690  103.2030 O   0  0  0  0  0  0  0  0  0  0  0  0
  101.6450   43.1280  104.0510 O   0  0  0  0  0  0  0  0  0  0  0  0
   99.1200   43.1910  103.7150 O   0  0  0  0  0  0  0  0  0  0  0  0
   97.5060   39.4610  103.2710 C   0  0  1  0  0  0  0  0  0  0  0  0
   98.6960   39.3740  102.4680 O   0  0  0  0  0  0  0  0  0  0  0  0
   96.3190   38.8020  102.5900 C   0  0  1  0  0  0  0  0  0  0  0  0
   96.7070   37.5600  101.9620 O   0  0  0  0  0  0  0  0  0  0  0  0
 20 21  2  0
 20 22  1  1
 20 23  1  0
 19 20  1  0
 16 17  2  0
 16 18  1  1
 16 19  1  0
 16 15  1  0
 15 14  1  0
 13 14  1  1
 13 12  1  0
 13 24  1  0
 12 11  1  0
 24 25  1  6
 24 26  1  0
 26 27  1  1
 26 11  1  0
 11 10  1  1
 10  9  1  0
 10  6  1  0
  9  8  2  0
  8  7  1  0
  7  2  1  0
  7  6  2  0
  2  1  1  0
  2  3  2  0
  3  4  1  0
  4  5  2  0
  5  6  1  0
M  END
$$$$
