
     RDKit          3D

 27 29  0  0  0  0  0  0  0  0999 V2000
   90.6718   41.9050  103.7274 N   0  0  0  0  0  0  0  0  0  0  0  0
   91.4975   41.0786  103.1188 C   0  0  0  0  0  0  0  0  0  0  0  0
   91.3031   40.5705  101.8937 N   0  0  0  0  0  0  0  0  0  0  0  0
   92.2271   39.8015  101.2692 C   0  0  0  0  0  0  0  0  0  0  0  0
   93.3394   39.3577  101.8686 N   0  0  0  0  0  0  0  0  0  0  0  0
   93.6941   39.8541  103.0846 C   0  0  0  0  0  0  0  0  0  0  0  0
   92.7431   40.7044  103.8086 C   0  0  0  0  0  0  0  0  0  0  0  0
   93.3149   41.0797  104.9973 N   0  0  0  0  0  0  0  0  0  0  0  0
   94.5790   40.5703  104.9518 C   0  0  0  0  0  0  0  0  0  0  0  0
   94.7556   39.8040  103.8152 N   0  0  0  0  0  0  0  0  0  0  0  0
   95.8961   38.9029  103.5635 C   0  0  2  0  0  0  0  0  0  0  0  0
   96.4675   38.5480  104.8145 O   0  0  0  0  0  0  0  0  0  0  0  0
   97.8651   38.7574  104.8104 C   0  0  2  0  0  0  0  0  0  0  0  0
   98.3646   39.0546  106.2443 C   0  0  0  0  0  0  0  0  0  0  0  0
   97.7239   40.2119  106.7527 O   0  0  0  0  0  0  0  0  0  0  0  0
   98.1108   41.6197  106.1416 P   0  0  1  0  0  0  0  0  0  0  0  0
   96.9299   42.4474  105.8689 O   0  0  0  0  0  0  0  0  0  0  0  0
   99.1446   42.2115  107.1185 O   0  0  0  0  0  0  0  0  0  0  0  0
   98.9363   41.2485  104.8216 O   0  0  0  0  0  0  0  0  0  0  0  0
  100.1719   42.0266  104.1442 P   0  0  2  0  0  0  0  0  0  0  0  0
   99.5346   42.7533  103.0384 O   0  0  0  0  0  0  0  0  0  0  0  0
  101.1137   40.8515  103.6934 O   0  0  0  0  0  0  0  0  0  0  0  0
  100.7893   42.9450  105.1612 O   0  0  0  0  0  0  0  0  0  0  0  0
   98.0580   39.9019  103.8050 C   0  0  1  0  0  0  0  0  0  0  0  0
   99.3467   40.0219  103.2083 O   0  0  0  0  0  0  0  0  0  0  0  0
   96.9823   39.5067  102.7517 C   0  0  1  0  0  0  0  0  0  0  0  0
   97.5137   38.6428  101.8036 O   0  0  0  0  0  0  0  0  0  0  0  0
 20 21  2  0
 20 22  1  6
 20 23  1  0
 19 20  1  0
 16 17  2  0
 16 18  1  1
 16 19  1  0
 16 15  1  0
 15 14  1  0
 13 14  1  1
 13 12  1  0
 13 24  1  0
 12 11  1  0
 24 25  1  6
 24 26  1  0
 26 27  1  6
 26 11  1  0
 11 10  1  1
 10  9  4  0
 10  6  4  0
  9  8  4  0
  8  7  4  0
  7  2  4  0
  7  6  4  0
  2  1  1  0
  2  3  4  0
  3  4  4  0
  4  5  4  0
  5  6  4  0
M  END
$$$$
