
     RDKit          3D

 34 37  0  0  0  0  0  0  0  0999 V2000
   14.5300   30.0860   52.3830 C   0  0  0  0  0  0  0  0  0  0  0  0
   14.9470   29.9130   53.7190 O   0  0  0  0  0  0  0  0  0  0  0  0
   15.3780   28.6500   54.1840 C   0  0  0  0  0  0  0  0  0  0  0  0
   15.9400   28.6230   55.4560 C   0  0  0  0  0  0  0  0  0  0  0  0
   16.3770   27.4220   55.9970 C   0  0  0  0  0  0  0  0  0  0  0  0
   16.2540   26.2540   55.2530 C   0  0  0  0  0  0  0  0  0  0  0  0
   16.7410   24.9390   55.8360 C   0  0  0  0  0  0  0  0  0  0  0  0
   17.6340   24.4040   54.8700 O   0  0  0  0  0  0  0  0  0  0  0  0
   18.8880   24.8710   55.1840 N   0  0  0  0  0  0  0  0  0  0  0  0
   19.8970   24.7330   54.3300 C   0  0  0  0  0  0  0  0  0  0  0  0
   21.2700   25.2550   54.7730 C   0  0  0  0  0  0  0  0  0  0  0  0
   22.0170   26.1340   54.0430 C   0  0  0  0  0  0  0  0  0  0  0  0
   23.3430   26.6190   54.6370 C   0  0  0  0  0  0  0  0  0  0  0  0
   24.5820   26.1800   54.2980 C   0  0  0  0  0  0  0  0  0  0  0  0
   24.8260   24.9300   53.1670 C   0  0  1  0  0  0  0  0  0  0  0  0
   25.9700   24.6240   52.2240 O   0  0  0  0  0  0  0  0  0  0  0  0
   25.2950   23.4560   52.8610 C   0  0  2  0  0  0  0  0  0  0  0  0
   24.6200   22.5800   51.8210 C   0  0  0  0  0  0  0  0  0  0  0  0
   23.2310   22.1550   52.2150 C   0  0  1  0  0  0  0  0  0  0  0  0
   23.2370   21.6650   53.6510 C   0  0  0  0  0  0  0  0  0  0  0  0
   22.4140   23.2780   52.0840 O   0  0  0  0  0  0  0  0  0  0  0  0
   21.7430   23.4000   50.8420 C   0  0  0  0  0  0  0  0  0  0  0  0
   22.0050   22.6690   49.9020 O   0  0  0  0  0  0  0  0  0  0  0  0
   20.6840   24.4920   50.6690 C   0  0  0  0  0  0  0  0  0  0  0  0
   20.7150   25.1940   49.4690 C   0  0  0  0  0  0  0  0  0  0  0  0
   21.6880   24.8640   48.5030 O   0  0  0  0  0  0  0  0  0  0  0  0
   19.7940   26.2080   49.2200 C   0  0  0  0  0  0  0  0  0  0  0  0
   18.8350   26.5180   50.1830 C   0  0  0  0  0  0  0  0  0  0  0  0
   17.9090   27.5490   49.9180 O   0  0  0  0  0  0  0  0  0  0  0  0
   18.7970   25.8170   51.3990 C   0  0  0  0  0  0  0  0  0  0  0  0
   19.7300   24.8040   51.6620 C   0  0  0  0  0  0  0  0  0  0  0  0
   19.6730   24.0080   52.9970 C   0  0  0  0  0  0  0  0  0  0  0  0
   15.7000   26.2720   53.9760 C   0  0  0  0  0  0  0  0  0  0  0  0
   15.2580   27.4720   53.4420 C   0  0  0  0  0  0  0  0  0  0  0  0
 32 31  1  0
 10 32  1  0
 11 12  2  0
 12 13  1  0
 13 14  2  0
 14 15  1  0
 15 17  1  0
 16 17  1  0
 17 18  1  6
  8  7  1  0
  7  6  1  0
  6  5  2  0
  5  4  1  0
  4  3  2  0
  3  2  1  0
  3 34  1  0
  2  1  1  0
 25 26  1  0
 24 25  2  0
 25 27  1  0
 24 22  1  0
 31 24  1  0
 22 21  1  0
 22 23  2  0
 21 19  1  0
 19 20  1  1
 19 18  1  0
 31 30  2  0
 10 11  1  0
  9 10  2  0
 15 16  1  6
  9  8  1  0
  6 33  1  0
 34 33  2  0
 30 28  1  0
 28 29  1  0
 28 27  2  0
M  END
$$$$
