
     RDKit          3D

 34 37  0  0  0  0  0  0  0  0999 V2000
   13.6531   24.6533   53.2663 C   0  0  0  0  0  0  0  0  0  0  0  0
   14.9601   24.6630   52.7094 O   0  0  0  0  0  0  0  0  0  0  0  0
   16.0322   24.5704   53.5889 C   0  0  0  0  0  0  0  0  0  0  0  0
   16.8411   25.6926   53.7276 C   0  0  0  0  0  0  0  0  0  0  0  0
   17.5064   25.9127   54.9164 C   0  0  0  0  0  0  0  0  0  0  0  0
   17.6420   24.9093   55.8462 C   0  0  0  0  0  0  0  0  0  0  0  0
   18.6770   24.9718   56.9206 C   0  0  0  0  0  0  0  0  0  0  0  0
   19.5174   23.8290   56.7565 O   0  0  0  0  0  0  0  0  0  0  0  0
   19.4014   23.4521   55.3807 N   0  0  0  0  0  0  0  0  0  0  0  0
   20.4565   23.4700   54.6433 C   0  0  0  0  0  0  0  0  0  0  0  0
   21.7911   23.9678   55.2645 C   0  0  0  0  0  0  0  0  0  0  0  0
   22.4376   25.1035   54.8757 C   0  0  0  0  0  0  0  0  0  0  0  0
   23.6859   25.4911   55.6305 C   0  0  0  0  0  0  0  0  0  0  0  0
   24.9670   25.3116   55.1978 C   0  0  0  0  0  0  0  0  0  0  0  0
   25.3522   24.5344   53.7114 C   0  0  1  0  0  0  0  0  0  0  0  0
   26.5058   24.6271   52.7534 O   0  0  0  0  0  0  0  0  0  0  0  0
   25.9558   23.2795   52.9931 C   0  0  2  0  0  0  0  0  0  0  0  0
   25.3806   22.7259   51.6686 C   0  0  0  0  0  0  0  0  0  0  0  0
   24.0347   22.0658   51.8868 C   0  0  1  0  0  0  0  0  0  0  0  0
   24.1182   21.1583   53.0415 C   0  0  0  0  0  0  0  0  0  0  0  0
   23.0978   23.0965   52.1072 O   0  0  0  0  0  0  0  0  0  0  0  0
   22.4121   23.5417   50.9492 C   0  0  0  0  0  0  0  0  0  0  0  0
   22.5145   22.9434   49.8993 O   0  0  0  0  0  0  0  0  0  0  0  0
   21.2586   24.5122   51.1102 C   0  0  0  0  0  0  0  0  0  0  0  0
   21.0404   25.3831   50.0329 C   0  0  0  0  0  0  0  0  0  0  0  0
   22.0188   25.4364   49.0402 O   0  0  0  0  0  0  0  0  0  0  0  0
   19.7746   25.9075   49.8073 C   0  0  0  0  0  0  0  0  0  0  0  0
   18.7787   25.8266   50.7670 C   0  0  0  0  0  0  0  0  0  0  0  0
   17.4419   25.9380   50.4065 O   0  0  0  0  0  0  0  0  0  0  0  0
   19.1066   25.1717   52.0489 C   0  0  0  0  0  0  0  0  0  0  0  0
   20.2664   24.3947   52.1266 C   0  0  0  0  0  0  0  0  0  0  0  0
   20.3213   23.2327   53.1372 C   0  0  0  0  0  0  0  0  0  0  0  0
   16.9000   23.7200   55.6780 C   0  0  0  0  0  0  0  0  0  0  0  0
   16.2294   23.5008   54.5027 C   0  0  0  0  0  0  0  0  0  0  0  0
 32 31  1  0
 10 32  1  0
 11 12  2  0
 12 13  1  0
 13 14  2  0
 14 15  1  0
 15 17  1  0
 16 17  1  0
 17 18  1  6
  8  7  1  0
  7  6  1  0
  6  5  4  0
  5  4  4  0
  4  3  4  0
  3  2  1  0
  3 34  4  0
  2  1  1  0
 25 26  1  0
 24 25  4  0
 25 27  4  0
 24 22  1  0
 31 24  4  0
 22 21  1  0
 22 23  2  0
 21 19  1  0
 19 20  1  1
 19 18  1  0
 31 30  4  0
 10 11  1  0
  9 10  2  0
 15 16  1  1
  9  8  1  0
  6 33  4  0
 34 33  4  0
 30 28  4  0
 28 29  1  0
 28 27  4  0
M  END
$$$$
