
     RDKit          3D

 33 36  0  0  0  0  0  0  0  0999 V2000
   19.6980  112.6240 -105.0940 C   0  0  0  0  0  0  0  0  0  0  0  0
   20.9880  112.3570 -104.3700 C   0  0  2  0  0  0  0  0  0  0  0  0
   21.2200  113.2670 -103.1750 C   0  0  0  0  0  0  0  0  0  0  0  0
   22.1180  112.5480 -105.3420 C   0  0  0  0  0  0  0  0  0  0  0  0
   23.4020  111.9940 -104.8130 C   0  0  0  0  0  0  0  0  0  0  0  0
   24.4350  112.4880 -105.1570 O   0  0  0  0  0  0  0  0  0  0  0  0
   23.4050  110.7410 -103.8230 C   0  0  0  0  0  0  0  0  0  0  0  0
   24.4080  109.9470 -103.2530 C   0  0  0  0  0  0  0  0  0  0  0  0
   25.9520  110.1020 -103.3810 C   0  0  1  0  0  0  0  0  0  0  0  0
   26.5050  109.2670 -102.4570 F   0  0  0  0  0  0  0  0  0  0  0  0
   26.4720  109.8820 -104.6310 F   0  0  0  0  0  0  0  0  0  0  0  0
   26.2800  111.3520 -102.9620 F   0  0  0  0  0  0  0  0  0  0  0  0
   23.8040  108.9870 -102.4720 N   0  0  0  0  0  0  0  0  0  0  0  0
   22.3950  109.1120 -102.5800 N   0  0  0  0  0  0  0  0  0  0  0  0
   21.4230  108.3980 -101.9130 C   0  0  0  0  0  0  0  0  0  0  0  0
   20.3070  107.8660 -102.5780 C   0  0  0  0  0  0  0  0  0  0  0  0
   19.3210  107.2300 -101.8220 C   0  0  0  0  0  0  0  0  0  0  0  0
   19.4910  107.1700 -100.4520 C   0  0  0  0  0  0  0  0  0  0  0  0
   18.3960  106.4630  -99.6580 C   0  0  0  0  0  0  0  0  0  0  0  0
   17.6150  105.4640 -100.3560 N   0  0  0  0  0  0  0  0  0  0  0  0
   18.2090  106.7620  -98.5040 O   0  0  0  0  0  0  0  0  0  0  0  0
   20.5620  107.6730  -99.7500 C   0  0  0  0  0  0  0  0  0  0  0  0
   20.5590  107.4910  -98.2770 N   0  0  0  0  0  0  0  0  0  0  0  0
   21.5640  108.0920  -97.3890 C   0  0  2  0  0  0  0  0  0  0  0  0
   21.5410  107.3620  -96.0400 C   0  0  0  0  0  0  0  0  0  0  0  0
   22.5720  107.9750  -95.0690 C   0  0  0  0  0  0  0  0  0  0  0  0
   22.5220  109.5180  -94.9300 C   0  0  1  0  0  0  0  0  0  0  0  0
   23.7560  110.0110  -94.4160 O   0  0  0  0  0  0  0  0  0  0  0  0
   22.2500  110.2760  -96.2410 C   0  0  0  0  0  0  0  0  0  0  0  0
   21.2430  109.5710  -97.1690 C   0  0  0  0  0  0  0  0  0  0  0  0
   21.5420  108.3130 -100.5010 C   0  0  0  0  0  0  0  0  0  0  0  0
   22.1630  110.2030 -103.3850 C   0  0  0  0  0  0  0  0  0  0  0  0
   20.8530  110.9480 -103.9000 C   0  0  0  0  0  0  0  0  0  0  0  0
 24 23  1  6
 24 25  1  0
 24 30  1  0
 22 18  2  0
 22 23  1  0
 31 22  1  0
 17 18  1  0
 18 19  1  0
 19 20  1  0
 15 16  1  0
 16 17  2  0
 19 21  2  0
 14 15  1  0
 14 13  1  0
 32 14  1  0
 15 31  2  0
  8 13  2  0
 29 27  1  0
 30 29  1  0
 26 27  1  0
 27 28  1  6
 25 26  1  0
  7  8  1  0
  8  9  1  0
  7 32  2  0
  5  7  1  0
 32 33  1  0
  4  2  1  0
  4  5  1  0
  2  1  1  6
  9 10  1  1
  5  6  2  0
  9 11  1  0
  9 12  1  0
 33  2  1  0
  2  3  1  0
M  END
$$$$
