
     RDKit          3D

 34 37  0  0  0  0  0  0  0  0999 V2000
   15.0400  -21.6292  -25.0021 C   0  0  0  0  0  0  0  0  0  0  0  0
   15.0336  -20.5777  -23.8484 C   0  0  0  0  0  0  0  0  0  0  0  0
   15.1065  -21.2838  -22.5931 N   0  0  0  0  0  0  0  0  0  0  0  0
   14.9298  -22.6818  -22.5646 C   0  0  0  0  0  0  0  0  0  0  0  0
   15.1409  -23.3062  -23.6198 O   0  0  0  0  0  0  0  0  0  0  0  0
   15.0726  -23.4579  -21.2687 C   0  0  0  0  0  0  0  0  0  0  0  0
   15.1199  -22.8918  -20.0056 N   0  0  0  0  0  0  0  0  0  0  0  0
   15.1386  -23.9582  -19.0250 O   0  0  0  0  0  0  0  0  0  0  0  0
   15.1858  -25.0666  -19.7073 C   0  0  0  0  0  0  0  0  0  0  0  0
   15.3703  -26.3337  -19.2075 C   0  0  0  0  0  0  0  0  0  0  0  0
   14.6037  -27.4422  -19.6298 C   0  0  0  0  0  0  0  0  0  0  0  0
   14.9241  -28.6987  -19.1629 C   0  0  0  0  0  0  0  0  0  0  0  0
   14.0507  -29.9260  -19.5309 C   0  0  2  0  0  0  0  0  0  0  0  0
   13.4876  -29.7063  -20.9703 C   0  0  0  0  0  0  0  0  0  0  0  0
   12.8647  -30.0558  -18.5912 C   0  0  0  0  0  0  0  0  0  0  0  0
   15.9177  -28.8577  -18.2025 C   0  0  0  0  0  0  0  0  0  0  0  0
   16.0226  -30.0493  -17.5430 O   0  0  0  0  0  0  0  0  0  0  0  0
   16.7061  -27.7693  -17.8105 C   0  0  0  0  0  0  0  0  0  0  0  0
   16.4367  -26.5496  -18.3456 C   0  0  0  0  0  0  0  0  0  0  0  0
   17.3705  -25.4966  -18.2347 O   0  0  0  0  0  0  0  0  0  0  0  0
   15.0495  -24.8155  -21.0890 C   0  0  0  0  0  0  0  0  0  0  0  0
   14.7563  -25.7368  -22.1093 C   0  0  0  0  0  0  0  0  0  0  0  0
   15.7630  -26.2587  -22.8648 C   0  0  0  0  0  0  0  0  0  0  0  0
   15.6239  -27.4643  -23.5301 C   0  0  0  0  0  0  0  0  0  0  0  0
   14.4487  -28.2374  -23.3369 C   0  0  0  0  0  0  0  0  0  0  0  0
   14.5639  -29.7716  -23.4131 C   0  0  0  0  0  0  0  0  0  0  0  0
   13.9950  -30.3435  -24.6121 N   0  0  2  0  0  0  0  0  0  0  0  0
   15.0161  -30.4908  -25.6204 C   0  0  0  0  0  0  0  0  0  0  0  0
   14.6916  -30.1104  -27.0467 C   0  0  0  0  0  0  0  0  0  0  0  0
   13.3342  -30.2681  -27.3977 O   0  0  0  0  0  0  0  0  0  0  0  0
   12.3472  -29.9600  -26.4581 C   0  0  0  0  0  0  0  0  0  0  0  0
   12.9509  -29.4203  -25.0903 C   0  0  0  0  0  0  0  0  0  0  0  0
   13.3529  -27.6318  -22.7801 C   0  0  0  0  0  0  0  0  0  0  0  0
   13.5014  -26.3770  -22.1524 C   0  0  0  0  0  0  0  0  0  0  0  0
 28 29  1  0
 28 27  1  0
 29 30  1  0
 30 31  1  0
 31 32  1  0
 32 27  1  0
 27 26  1  1
 26 25  1  0
 25 24  4  0
 25 33  4  0
 24 23  4  0
 23 22  4  0
 33 34  4  0
 34 22  4  0
 22 21  1  0
 21  6  4  0
 21  9  4  0
  6  4  1  0
  6  7  4  0
  4  5  2  0
  4  3  1  0
  3  2  1  0
  2  1  1  0
  7  8  4  0
  8  9  4  0
  9 10  1  0
 10 11  4  0
 10 19  4  0
 11 12  4  0
 12 13  1  0
 12 16  4  0
 13 14  1  1
 13 15  1  0
 16 17  1  0
 16 18  4  0
 18 19  4  0
 19 20  1  0
M  CHG  1  27   1
M  END
$$$$
