
     RDKit          3D

 20 20  0  0  0  0  0  0  0  0999 V2000
  159.8490   23.9560  -25.1270 C   0  0  0  0  0  0  0  0  0  0  0  0
  159.7680   24.2510  -23.6760 C   0  0  0  0  0  0  0  0  0  0  0  0
  159.2680   25.2860  -23.2890 O   0  0  0  0  0  0  0  0  0  0  0  0
  160.2610   23.3270  -22.8680 N   0  0  0  0  0  0  0  0  0  0  0  0
  160.2520   23.4700  -21.4330 C   0  0  2  0  0  0  0  0  0  0  0  0
  161.5010   22.8370  -20.8560 C   0  0  1  0  0  0  0  0  0  0  0  0
  162.7000   23.4470  -21.4040 O   0  0  0  0  0  0  0  0  0  0  0  0
  161.3940   22.9450  -19.3430 C   0  0  0  0  0  0  0  0  0  0  0  0
  160.1910   22.7800  -18.7360 C   0  0  0  0  0  0  0  0  0  0  0  0
  159.9830   22.5790  -17.2970 C   0  0  0  0  0  0  0  0  0  0  0  0
  160.9420   22.2950  -16.5410 O   0  0  0  0  0  0  0  0  0  0  0  0
  158.8030   22.6480  -16.8520 O   0  0  0  0  0  0  0  0  0  0  0  0
  158.9660   22.6750  -19.4730 O   0  0  0  0  0  0  0  0  0  0  0  0
  159.0030   22.7820  -20.8850 C   0  0  1  0  0  0  0  0  0  0  0  0
  157.6700   23.4220  -21.2940 C   0  0  2  0  0  0  0  0  0  0  0  0
  157.6230   24.8090  -20.9900 O   0  0  0  0  0  0  0  0  0  0  0  0
  156.4500   22.7920  -20.6510 C   0  0  2  0  0  0  0  0  0  0  0  0
  156.6040   21.3610  -20.5990 O   0  0  0  0  0  0  0  0  0  0  0  0
  155.2880   23.1660  -21.5670 C   0  0  0  0  0  0  0  0  0  0  0  0
  154.0600   22.6850  -21.0660 O   0  0  0  0  0  0  0  0  0  0  0  0
  9 10  1  0
 10 12  1  0
 10 11  2  0
  8  9  2  0
 13  9  1  0
  6  8  1  0
  5  6  1  0
  6  7  1  6
  5 14  1  0
  5  4  1  6
 14 15  1  0
 14 13  1  1
 15 17  1  0
 15 16  1  1
 17 19  1  0
 17 18  1  6
 19 20  1  0
  2  1  1  0
  2  4  1  0
  2  3  2  0
M  END
$$$$
