
     RDKit          3D

 23 25  0  0  0  0  0  0  0  0999 V2000
    5.5795  122.6601   48.5293 N   0  0  0  0  0  0  0  0  0  0  0  0
    4.6633  123.0323   49.5137 C   0  0  0  0  0  0  0  0  0  0  0  0
    5.0889  123.4363   50.7795 N   0  0  0  0  0  0  0  0  0  0  0  0
    4.2612  124.0346   51.6287 C   0  0  0  0  0  0  0  0  0  0  0  0
    2.9653  124.2287   51.3288 N   0  0  0  0  0  0  0  0  0  0  0  0
    2.4335  123.7356   50.1647 C   0  0  0  0  0  0  0  0  0  0  0  0
    3.2680  123.1272   49.2313 C   0  0  0  0  0  0  0  0  0  0  0  0
    2.4910  122.6597   48.1704 N   0  0  0  0  0  0  0  0  0  0  0  0
    1.1895  122.8669   48.5466 C   0  0  0  0  0  0  0  0  0  0  0  0
    1.1476  123.5632   49.7094 N   0  0  0  0  0  0  0  0  0  0  0  0
    0.0245  124.0320   50.4168 C   0  0  2  0  0  0  0  0  0  0  0  0
   -1.0601  123.4183   49.9715 O   0  0  0  0  0  0  0  0  0  0  0  0
   -1.8576  124.4829   49.1943 C   0  0  2  0  0  0  0  0  0  0  0  0
   -2.3237  123.9144   47.9457 C   0  0  0  0  0  0  0  0  0  0  0  0
   -1.5173  123.7982   46.9929 O   0  0  0  0  0  0  0  0  0  0  0  0
   -3.7199  123.7607   47.7009 N   0  0  0  0  0  0  0  0  0  0  0  0
   -4.4370  124.9574   47.1964 C   0  0  0  0  0  0  0  0  0  0  0  0
   -5.9088  124.6272   47.1010 C   0  0  0  0  0  0  0  0  0  0  0  0
   -6.0785  123.2202   47.1074 O   0  0  0  0  0  0  0  0  0  0  0  0
   -0.8698  125.6924   49.0783 C   0  0  1  0  0  0  0  0  0  0  0  0
   -1.6894  126.9875   49.0415 O   0  0  0  0  0  0  0  0  0  0  0  0
   -0.1651  125.6408   50.0942 C   0  0  1  0  0  0  0  0  0  0  0  0
   -0.8906  126.2366   51.3122 O   0  0  0  0  0  0  0  0  0  0  0  0
 19 18  1  0
 18 17  1  0
 17 16  1  0
 16 14  1  0
 14 15  2  0
 13 14  1  6
 13 12  1  0
 13 20  1  0
 12 11  1  0
 20 21  1  1
 20 22  1  0
 22 23  1  1
 22 11  1  0
 11 10  1  6
 10  9  4  0
 10  6  4  0
  9  8  4  0
  8  7  4  0
  7  6  4  0
  7  2  4  0
  6  5  4  0
  5  4  4  0
  4  3  4  0
  3  2  4  0
  2  1  1  0
M  END
$$$$
