
     RDKit          3D

 23 25  0  0  0  0  0  0  0  0999 V2000
   69.7300  210.7160   48.6960 N   0  0  0  0  0  0  0  0  0  0  0  0
   68.8510  211.3840   49.6560 C   0  0  0  0  0  0  0  0  0  0  0  0
   69.3880  211.9140   50.7940 N   0  0  0  0  0  0  0  0  0  0  0  0
   68.6200  212.5650   51.7270 C   0  0  0  0  0  0  0  0  0  0  0  0
   67.3200  212.7030   51.5650 N   0  0  0  0  0  0  0  0  0  0  0  0
   66.7230  212.1700   50.4110 C   0  0  0  0  0  0  0  0  0  0  0  0
   67.4730  211.4980   49.4470 C   0  0  0  0  0  0  0  0  0  0  0  0
   66.5970  211.1040   48.4530 N   0  0  0  0  0  0  0  0  0  0  0  0
   65.3490  211.5110   48.8090 C   0  0  0  0  0  0  0  0  0  0  0  0
   65.4160  212.1660   50.0070 N   0  0  0  0  0  0  0  0  0  0  0  0
   64.3310  212.7970   50.7600 C   0  0  2  0  0  0  0  0  0  0  0  0
   63.1730  212.3480   50.3530 O   0  0  0  0  0  0  0  0  0  0  0  0
   62.3680  213.6130   49.6400 C   0  0  2  0  0  0  0  0  0  0  0  0
   61.5560  213.0180   48.6060 C   0  0  0  0  0  0  0  0  0  0  0  0
   61.9280  212.0640   47.8810 O   0  0  0  0  0  0  0  0  0  0  0  0
   60.2250  213.5470   48.4470 N   0  0  0  0  0  0  0  0  0  0  0  0
   59.3040  213.0480   47.4780 C   0  0  0  0  0  0  0  0  0  0  0  0
   57.8930  213.0170   48.1580 C   0  0  0  0  0  0  0  0  0  0  0  0
   57.7510  211.8830   48.9900 N   0  0  0  0  0  0  0  0  0  0  0  0
   63.3430  214.4230   49.2160 C   0  0  1  0  0  0  0  0  0  0  0  0
   62.8840  215.7950   49.0710 O   0  0  0  0  0  0  0  0  0  0  0  0
   64.3460  214.3340   50.4140 C   0  0  1  0  0  0  0  0  0  0  0  0
   63.9050  215.0620   51.4740 O   0  0  0  0  0  0  0  0  0  0  0  0
 19 18  1  0
 18 17  1  0
 17 16  1  0
 16 14  1  0
 14 15  2  0
 13 14  1  6
 13 12  1  0
 13 20  1  0
 12 11  1  0
 20 21  1  1
 20 22  1  0
 22 23  1  1
 22 11  1  0
 11 10  1  6
 10  9  1  0
 10  6  1  0
  9  8  2  0
  8  7  1  0
  7  6  2  0
  7  2  1  0
  6  5  1  0
  5  4  2  0
  4  3  1  0
  3  2  2  0
  2  1  1  0
M  CHG  1  19   1
M  END
$$$$
