
     RDKit          3D

 72 71  0  0  0  0  0  0  0  0999 V2000
   16.8537   10.5698    7.8638 H   0  0  0  0  0  0  0  0  0  0  0  0
   17.1920    9.7280    8.3300 N   0  0  0  0  0  0  0  0  0  0  0  0
   16.3500    8.7450    8.6160 C   0  0  0  0  0  0  0  0  0  0  0  0
   16.7920    7.6510    9.2230 N   0  0  0  0  0  0  0  0  0  0  0  0
   15.0650    8.8570    8.2950 N   0  0  0  0  0  0  0  0  0  0  0  0
   14.4880   10.0160    7.6220 C   0  0  0  0  0  0  0  0  0  0  0  0
   14.1160   11.1160    8.5990 C   0  0  0  0  0  0  0  0  0  0  0  0
   13.0710   10.6510    9.6020 C   0  0  0  0  0  0  0  0  0  0  0  0
   12.6960   11.7210   10.6300 C   0  0  2  0  0  0  0  0  0  0  0  0
   13.7700   11.9240   11.5900 N   0  0  0  0  0  0  0  0  0  0  0  0
   13.9940   13.1190   12.1190 C   0  0  0  0  0  0  0  0  0  0  0  0
   13.4090   14.1430   11.7550 O   0  0  0  0  0  0  0  0  0  0  0  0
   15.0460   13.1600   13.2150 C   0  0  2  0  0  0  0  0  0  0  0  0
   14.4500   12.7120   14.5550 C   0  0  0  0  0  0  0  0  0  0  0  0
   15.5840   14.5100   13.2820 N   0  0  0  0  0  0  0  0  0  0  0  0
   16.7640   14.7800   13.8330 C   0  0  0  0  0  0  0  0  0  0  0  0
   17.4310   13.9430   14.4460 O   0  0  0  0  0  0  0  0  0  0  0  0
   17.2480   16.2110   13.6450 C   0  0  1  0  0  0  0  0  0  0  0  0
   18.4550   16.4370   14.4240 N   0  0  0  0  0  0  0  0  0  0  0  0
   18.5590   17.4160   15.3150 C   0  0  0  0  0  0  0  0  0  0  0  0
   17.6360   18.2010   15.5590 O   0  0  0  0  0  0  0  0  0  0  0  0
   19.8960   17.5430   16.0360 C   0  0  2  0  0  0  0  0  0  0  0  0
   19.7020   17.6450   17.5470 C   0  0  0  0  0  0  0  0  0  0  0  0
   20.9640   18.0300   18.3090 C   0  0  0  0  0  0  0  0  0  0  0  0
   22.0640   16.9910   18.1880 C   0  0  0  0  0  0  0  0  0  0  0  0
   23.0870   17.2970   17.3960 N   0  0  0  0  0  0  0  0  0  0  0  0
   21.9950   15.9260   18.7990 O   0  0  0  0  0  0  0  0  0  0  0  0
   20.5830   18.7250   15.5300 N   0  0  0  0  0  0  0  0  0  0  0  0
   21.3920   18.6860   14.4750 C   0  0  0  0  0  0  0  0  0  0  0  0
   21.6360   17.6550   13.8550 O   0  0  0  0  0  0  0  0  0  0  0  0
   22.0230   20.0140   14.0690 C   0  0  1  0  0  0  0  0  0  0  0  0
   23.3510   19.8250   13.4950 N   0  0  0  0  0  0  0  0  0  0  0  0
   21.1140   20.7500   13.0820 C   0  0  0  0  0  0  0  0  0  0  0  0
   21.5010   20.5650   11.6250 C   0  0  0  0  0  0  0  0  0  0  0  0
   20.5900   21.3690   10.7080 C   0  0  0  0  0  0  0  0  0  0  0  0
   21.1220   21.4020    9.2840 C   0  0  0  0  0  0  0  0  0  0  0  0
   22.4470   22.0840    9.2060 N   0  0  0  0  0  0  0  0  0  0  0  0
   17.4860   16.4790   12.1530 C   0  0  1  0  0  0  0  0  0  0  0  0
   18.0570   17.8780   11.9350 C   0  0  0  0  0  0  0  0  0  0  0  0
   18.4000   15.5030   11.6380 O   0  0  0  0  0  0  0  0  0  0  0  0
   11.4230   11.3390   11.3730 C   0  0  0  0  0  0  0  0  0  0  0  0
   11.4300   10.4400   12.2150 O   0  0  0  0  0  0  0  0  0  0  0  0
   10.3400   12.0460   11.0770 N   0  0  0  0  0  0  0  0  0  0  0  0
    9.0640   11.7680   11.6860 C   0  0  1  0  0  0  0  0  0  0  0  0
    8.2220   13.0400   11.8710 C   0  0  0  0  0  0  0  0  0  0  0  0
    7.0730   12.8110   12.8260 C   0  0  0  0  0  0  0  0  0  0  0  0
    6.0450   13.9220   12.6910 C   0  0  0  0  0  0  0  0  0  0  0  0
    6.6950   15.2290   13.1250 C   0  0  0  0  0  0  0  0  0  0  0  0
    5.8050   16.4460   13.2820 N   0  0  2  0  0  0  0  0  0  0  0  0
    4.7520   16.2310   14.3180 C   0  0  0  0  0  0  0  0  0  0  0  0
    5.1610   16.8330   11.9920 C   0  0  0  0  0  0  0  0  0  0  0  0
    6.6870   17.5720   13.7250 C   0  0  0  0  0  0  0  0  0  0  0  0
    8.2600   10.7730   10.8620 C   0  0  0  0  0  0  0  0  0  0  0  0
    8.0060   10.9390    9.6670 O   0  0  0  0  0  0  0  0  0  0  0  0
    7.8580    9.6940   11.5290 N   0  0  0  0  0  0  0  0  0  0  0  0
    7.1140    8.6210   10.8770 C   0  0  1  0  0  0  0  0  0  0  0  0
    6.8760    7.4630   11.8490 C   0  0  0  0  0  0  0  0  0  0  0  0
    8.1020    6.8650   12.2350 O   0  0  0  0  0  0  0  0  0  0  0  0
    5.7890    9.1390   10.3300 C   0  0  0  0  0  0  0  0  0  0  0  0
    5.0070    9.7560   11.0520 O   0  0  0  0  0  0  0  0  0  0  0  0
    5.5510    8.8840    9.0460 N   0  0  0  0  0  0  0  0  0  0  0  0
    4.3920    9.4170    8.3450 C   0  0  2  0  0  0  0  0  0  0  0  0
    3.2420    8.4180    8.3660 C   0  0  0  0  0  0  0  0  0  0  0  0
    3.4330    7.2250    8.1150 O   0  0  0  0  0  0  0  0  0  0  0  0
    2.0460    8.9150    8.6650 N   0  0  0  0  0  0  0  0  0  0  0  0
    0.8610    8.0790    8.7190 C   0  0  0  0  0  0  0  0  0  0  0  0
    0.6360    7.4520   10.0810 C   0  0  0  0  0  0  0  0  0  0  0  0
    1.4300    7.6460   11.0010 O   0  0  0  0  0  0  0  0  0  0  0  0
   -0.3450    6.7380   10.2900 O   0  0  0  0  0  0  0  0  0  0  0  0
    4.7560    9.7630    6.8990 C   0  0  1  0  0  0  0  0  0  0  0  0
    3.6020   10.4940    6.2130 C   0  0  0  0  0  0  0  0  0  0  0  0
    5.9240   10.5970    6.8840 O   0  0  0  0  0  0  0  0  0  0  0  0
 31 32  1  6
 31 29  1  0
 31 33  1  0
 29 30  2  0
 29 28  1  0
 33 34  1  0
 34 35  1  0
 35 36  1  0
 36 37  1  0
 28 22  1  0
 22 20  1  0
 22 23  1  1
 20 21  2  0
 20 19  1  0
 23 24  1  0
 24 25  1  0
 25 27  2  0
 25 26  1  0
 18 19  1  1
 18 16  1  0
 18 38  1  0
 16 17  2  0
 16 15  1  0
 38 40  1  0
 38 39  1  1
 15 13  1  0
 13 11  1  0
 13 14  1  1
 11 12  2  0
 11 10  1  0
 10  9  1  0
  9 41  1  0
  9  8  1  6
 41 42  2  0
 41 43  1  0
  8  7  1  0
  7  6  1  0
  6  5  1  0
  5  3  1  0
  3  2  2  0
  3  4  1  0
 43 44  1  0
 44 45  1  6
 44 53  1  0
 45 46  1  0
 46 47  1  0
 47 48  1  0
 48 49  1  0
 49 50  1  1
 49 51  1  0
 49 52  1  0
 53 54  2  0
 53 55  1  0
 55 56  1  0
 56 59  1  0
 56 57  1  1
 59 60  2  0
 59 61  1  0
 57 58  1  0
 62 61  1  6
 62 63  1  0
 62 70  1  0
 63 64  2  0
 63 65  1  0
 70 72  1  0
 70 71  1  1
 65 66  1  0
 66 67  1  0
 67 68  2  0
 67 69  1  0
  2  1  1  0
M  CHG  3  32   1  37   1  49   1
M  END
$$$$
