
     RDKit          3D

 72 71  0  0  0  0  0  0  0  0999 V2000
    7.4811    8.7418    8.1838 H   0  0  0  0  0  0  0  0  0  0  0  0
    8.5757    8.7670    7.7321 N   0  0  0  0  0  0  0  0  0  0  0  0
    9.4555    8.6587    8.6392 C   0  0  0  0  0  0  0  0  0  0  0  0
    9.7893    7.4651    9.1480 N   0  0  0  0  0  0  0  0  0  0  0  0
   10.0374    9.7358    9.1733 N   0  0  0  0  0  0  0  0  0  0  0  0
   11.4774    9.8743    9.2386 C   0  0  0  0  0  0  0  0  0  0  0  0
   11.8685   11.3377    9.5506 C   0  0  0  0  0  0  0  0  0  0  0  0
   13.3934   11.4626    9.6293 C   0  0  0  0  0  0  0  0  0  0  0  0
   13.8522   11.8706   11.0378 C   0  0  1  0  0  0  0  0  0  0  0  0
   14.4090   13.2645   11.0655 N   0  0  0  0  0  0  0  0  0  0  0  0
   15.6737   13.5040   11.2098 C   0  0  0  0  0  0  0  0  0  0  0  0
   16.5337   13.3930   10.2915 O   0  0  0  0  0  0  0  0  0  0  0  0
   16.0593   14.1143   12.5274 C   0  0  1  0  0  0  0  0  0  0  0  0
   16.5769   13.1403   13.5432 C   0  0  0  0  0  0  0  0  0  0  0  0
   17.0855   15.1505   12.2757 N   0  0  0  0  0  0  0  0  0  0  0  0
   17.8735   15.5897   13.2379 C   0  0  0  0  0  0  0  0  0  0  0  0
   18.1872   14.9106   14.2052 O   0  0  0  0  0  0  0  0  0  0  0  0
   18.2627   17.0809   13.1433 C   0  0  1  0  0  0  0  0  0  0  0  0
   19.2352   17.4399   14.1572 N   0  0  0  0  0  0  0  0  0  0  0  0
   19.8505   18.5997   14.1837 C   0  0  0  0  0  0  0  0  0  0  0  0
   19.3525   19.6132   13.6979 O   0  0  0  0  0  0  0  0  0  0  0  0
   21.0797   18.6914   15.0824 C   0  0  2  0  0  0  0  0  0  0  0  0
   20.6680   19.0019   16.5337 C   0  0  0  0  0  0  0  0  0  0  0  0
   20.7257   17.8153   17.4453 C   0  0  0  0  0  0  0  0  0  0  0  0
   20.6838   18.1797   18.9137 C   0  0  0  0  0  0  0  0  0  0  0  0
   21.8083   18.5850   19.4346 N   0  0  0  0  0  0  0  0  0  0  0  0
   19.7418   17.8411   19.6384 O   0  0  0  0  0  0  0  0  0  0  0  0
   21.9254   19.7377   14.5377 N   0  0  0  0  0  0  0  0  0  0  0  0
   21.7628   21.0440   14.8268 C   0  0  0  0  0  0  0  0  0  0  0  0
   20.6618   21.5724   14.8700 O   0  0  0  0  0  0  0  0  0  0  0  0
   23.0022   21.8019   15.2149 C   0  0  1  0  0  0  0  0  0  0  0  0
   24.2488   21.0708   14.8497 N   0  0  0  0  0  0  0  0  0  0  0  0
   22.9615   23.1719   14.5871 C   0  0  0  0  0  0  0  0  0  0  0  0
   22.4468   23.2071   13.1589 C   0  0  0  0  0  0  0  0  0  0  0  0
   23.4309   23.8071   12.2106 C   0  0  0  0  0  0  0  0  0  0  0  0
   24.5528   24.5542   12.8884 C   0  0  0  0  0  0  0  0  0  0  0  0
   25.8567   23.9296   12.6312 N   0  0  0  0  0  0  0  0  0  0  0  0
   18.7513   17.4276   11.7353 C   0  0  2  0  0  0  0  0  0  0  0  0
   20.2477   17.7615   11.7677 C   0  0  0  0  0  0  0  0  0  0  0  0
   17.9749   18.4709   11.1892 O   0  0  0  0  0  0  0  0  0  0  0  0
   12.7564   11.7745   12.0825 C   0  0  0  0  0  0  0  0  0  0  0  0
   12.4623   10.7276   12.6011 O   0  0  0  0  0  0  0  0  0  0  0  0
   11.9173   12.8339   12.0923 N   0  0  0  0  0  0  0  0  0  0  0  0
   10.6538   12.7382   12.8175 C   0  0  1  0  0  0  0  0  0  0  0  0
    9.5318   13.3990   11.9920 C   0  0  0  0  0  0  0  0  0  0  0  0
    8.2764   13.5875   12.8798 C   0  0  0  0  0  0  0  0  0  0  0  0
    7.9994   15.0723   13.0169 C   0  0  0  0  0  0  0  0  0  0  0  0
    6.4549   15.2486   13.2144 C   0  0  0  0  0  0  0  0  0  0  0  0
    5.9115   16.6112   13.2565 N   0  0  2  0  0  0  0  0  0  0  0  0
    4.7384   16.7183   14.1983 C   0  0  0  0  0  0  0  0  0  0  0  0
    5.5212   17.0981   11.9091 C   0  0  0  0  0  0  0  0  0  0  0  0
    6.9709   17.5799   13.7715 C   0  0  0  0  0  0  0  0  0  0  0  0
   10.2669   11.3015   13.0805 C   0  0  0  0  0  0  0  0  0  0  0  0
    9.3907   10.9707   13.8809 O   0  0  0  0  0  0  0  0  0  0  0  0
   10.6521   10.4466   12.1547 N   0  0  0  0  0  0  0  0  0  0  0  0
    9.6854    9.6278   11.4048 C   0  0  1  0  0  0  0  0  0  0  0  0
    9.5810    8.2409   12.0845 C   0  0  0  0  0  0  0  0  0  0  0  0
    9.5168    8.3542   13.5016 O   0  0  0  0  0  0  0  0  0  0  0  0
    8.3288   10.3271   11.3052 C   0  0  0  0  0  0  0  0  0  0  0  0
    8.2694   11.5482   11.2602 O   0  0  0  0  0  0  0  0  0  0  0  0
    7.2644    9.5253   11.1954 N   0  0  0  0  0  0  0  0  0  0  0  0
    5.9604   10.0687   10.8105 C   0  0  2  0  0  0  0  0  0  0  0  0
    4.9480    8.9353   10.7911 C   0  0  0  0  0  0  0  0  0  0  0  0
    4.0876    8.8958    9.8560 O   0  0  0  0  0  0  0  0  0  0  0  0
    4.7830    8.2381   11.8694 N   0  0  0  0  0  0  0  0  0  0  0  0
    3.4999    7.7193   12.2762 C   0  0  0  0  0  0  0  0  0  0  0  0
    2.5426    7.5800   11.1508 C   0  0  0  0  0  0  0  0  0  0  0  0
    1.3094    7.6780   11.3805 O   0  0  0  0  0  0  0  0  0  0  0  0
    2.9519    7.6407    9.9594 O   0  0  0  0  0  0  0  0  0  0  0  0
    6.0364   10.7349    9.4567 C   0  0  2  0  0  0  0  0  0  0  0  0
    4.9244   10.2667    8.5291 C   0  0  0  0  0  0  0  0  0  0  0  0
    7.3256   10.4706    8.8352 O   0  0  0  0  0  0  0  0  0  0  0  0
 31 32  1  6
 31 29  1  0
 31 33  1  0
 29 30  2  0
 29 28  1  0
 33 34  1  0
 34 35  1  0
 35 36  1  0
 36 37  1  0
 28 22  1  0
 22 20  1  0
 22 23  1  1
 20 21  2  0
 20 19  1  0
 23 24  1  0
 24 25  1  0
 25 27  2  0
 25 26  1  0
 18 19  1  1
 18 16  1  0
 18 38  1  0
 16 17  2  0
 16 15  1  0
 38 40  1  0
 38 39  1  6
 15 13  1  0
 13 11  1  0
 13 14  1  6
 11 12  2  0
 11 10  1  0
 10  9  1  0
  9 41  1  0
  9  8  1  1
 41 42  2  0
 41 43  1  0
  8  7  1  0
  7  6  1  0
  6  5  1  0
  5  3  1  0
  3  2  2  0
  3  4  1  0
 43 44  1  0
 44 45  1  6
 44 53  1  0
 45 46  1  0
 46 47  1  0
 47 48  1  0
 48 49  1  0
 49 50  1  1
 49 51  1  0
 49 52  1  0
 53 54  2  0
 53 55  1  0
 55 56  1  0
 56 59  1  0
 56 57  1  1
 59 60  2  0
 59 61  1  0
 57 58  1  0
 62 61  1  6
 62 63  1  0
 62 70  1  0
 63 64  2  0
 63 65  1  0
 70 72  1  0
 70 71  1  1
 65 66  1  0
 66 67  1  0
 67 68  2  0
 67 69  1  0
  2  1  1  0
M  CHG  3  32   1  37   1  49   1
M  END
$$$$
