
     RDKit          3D

 70 70  0  0  0  0  0  0  0  0999 V2000
   -3.6882  -13.5506    2.0743 H   0  0  0  0  0  0  0  0  0  0  0  0
   -2.6840  -13.7010    2.1710 N   0  0  0  0  0  0  0  0  0  0  0  0
   -2.2120  -14.9260    2.3550 C   0  0  0  0  0  0  0  0  0  0  0  0
   -0.9050  -15.1170    2.4810 N   0  0  0  0  0  0  0  0  0  0  0  0
   -3.0440  -15.9600    2.4140 N   0  0  0  0  0  0  0  0  0  0  0  0
   -2.6200  -17.3420    2.6120 C   0  0  0  0  0  0  0  0  0  0  0  0
   -2.3690  -18.0570    1.2920 C   0  0  0  0  0  0  0  0  0  0  0  0
   -1.9150  -19.4840    1.5270 C   0  0  0  0  0  0  0  0  0  0  0  0
   -1.8110  -20.3400    0.2630 C   0  0  2  0  0  0  0  0  0  0  0  0
   -1.5530  -21.7270    0.6100 N   0  0  0  0  0  0  0  0  0  0  0  0
   -1.8250  -22.7230   -0.2240 C   0  0  0  0  0  0  0  0  0  0  0  0
   -2.3790  -22.5700   -1.3150 O   0  0  0  0  0  0  0  0  0  0  0  0
   -1.3990  -24.1000    0.2500 C   0  0  2  0  0  0  0  0  0  0  0  0
    0.0570  -24.3580   -0.1480 C   0  0  0  0  0  0  0  0  0  0  0  0
   -2.3070  -25.0920   -0.3020 N   0  0  0  0  0  0  0  0  0  0  0  0
   -2.4070  -26.3060    0.2320 C   0  0  0  0  0  0  0  0  0  0  0  0
   -1.6800  -26.6970    1.1490 O   0  0  0  0  0  0  0  0  0  0  0  0
   -3.4890  -27.1970   -0.3610 C   0  0  1  0  0  0  0  0  0  0  0  0
   -3.3000  -28.5630    0.1010 N   0  0  0  0  0  0  0  0  0  0  0  0
   -3.1710  -29.5910   -0.7330 C   0  0  0  0  0  0  0  0  0  0  0  0
   -3.1820  -29.4580   -1.9590 O   0  0  0  0  0  0  0  0  0  0  0  0
   -3.0230  -30.9670   -0.0970 C   0  0  2  0  0  0  0  0  0  0  0  0
   -1.8970  -31.7690   -0.7390 C   0  0  0  0  0  0  0  0  0  0  0  0
   -1.8550  -33.2320   -0.3160 C   0  0  0  0  0  0  0  0  0  0  0  0
   -1.5810  -33.4130    1.1650 C   0  0  0  0  0  0  0  0  0  0  0  0
   -2.5390  -33.9930    1.8770 N   0  0  0  0  0  0  0  0  0  0  0  0
   -0.5200  -33.0390    1.6630 O   0  0  0  0  0  0  0  0  0  0  0  0
   -4.3000  -31.6610   -0.2420 N   0  0  0  0  0  0  0  0  0  0  0  0
   -5.2530  -31.5990    0.6840 C   0  0  0  0  0  0  0  0  0  0  0  0
   -5.1150  -30.9910    1.7500 O   0  0  0  0  0  0  0  0  0  0  0  0
   -6.5500  -32.3350    0.3680 C   0  0  2  0  0  0  0  0  0  0  0  0
   -7.6940  -31.3410    0.1810 C   0  0  0  0  0  0  0  0  0  0  0  0
   -7.8870  -30.8650   -1.2480 C   0  0  0  0  0  0  0  0  0  0  0  0
   -9.1450  -30.0210   -1.3720 C   0  0  0  0  0  0  0  0  0  0  0  0
   -9.6550  -30.0030   -2.8030 C   0  0  0  0  0  0  0  0  0  0  0  0
  -10.9010  -29.1990   -2.9390 N   0  0  0  0  0  0  0  0  0  0  0  0
   -6.8680  -33.2720    1.4370 N   0  0  0  0  0  0  0  0  0  0  0  0
   -6.1690  -34.3920    1.5960 C   0  0  0  0  0  0  0  0  0  0  0  0
   -5.2140  -34.6950    0.8820 O   0  0  0  0  0  0  0  0  0  0  0  0
   -6.6130  -35.3060    2.7320 C   0  0  2  0  0  0  0  0  0  0  0  0
   -6.4180  -34.5770    4.0750 C   0  0  0  0  0  0  0  0  0  0  0  0
   -5.8850  -36.5680    2.6960 N   0  0  0  0  0  0  0  0  0  0  0  0
   -4.8750  -26.6500    0.0190 C   0  0  1  0  0  0  0  0  0  0  0  0
   -5.9760  -27.6040   -0.4210 C   0  0  0  0  0  0  0  0  0  0  0  0
   -4.9470  -26.4720    1.4390 O   0  0  0  0  0  0  0  0  0  0  0  0
   -0.6960  -19.8350   -0.6450 C   0  0  0  0  0  0  0  0  0  0  0  0
    0.4700  -20.1860   -0.4610 O   0  0  0  0  0  0  0  0  0  0  0  0
   -1.0540  -19.0190   -1.6300 N   0  0  0  0  0  0  0  0  0  0  0  0
   -0.0480  -18.4900   -2.5980 C   0  0  1  0  0  0  0  0  0  0  0  0
   -0.4620  -18.8240   -4.0300 C   0  0  0  0  0  0  0  0  0  0  0  0
    0.5460  -18.3000   -5.0470 C   0  0  0  0  0  0  0  0  0  0  0  0
    0.0130  -18.4090   -6.4750 C   0  0  0  0  0  0  0  0  0  0  0  0
   -0.1330  -19.8590   -6.9200 C   0  0  0  0  0  0  0  0  0  0  0  0
   -0.5600  -19.9830   -8.3040 N   0  0  0  0  0  0  0  0  0  0  0  0
   -0.7640  -21.3900   -8.5920 C   0  0  0  0  0  0  0  0  0  0  0  0
   -1.0360  -21.7060  -10.0470 C   0  0  0  0  0  0  0  0  0  0  0  0
   -1.7120  -22.8770  -10.3740 C   0  0  0  0  0  0  0  0  0  0  0  0
   -1.9710  -23.1890  -11.7030 C   0  0  0  0  0  0  0  0  0  0  0  0
   -1.5530  -22.3300  -12.7130 C   0  0  0  0  0  0  0  0  0  0  0  0
   -0.8750  -21.1600  -12.3880 C   0  0  0  0  0  0  0  0  0  0  0  0
   -0.6160  -20.8480  -11.0570 C   0  0  0  0  0  0  0  0  0  0  0  0
    0.1000  -17.0060   -2.4200 C   0  0  0  0  0  0  0  0  0  0  0  0
   -0.8590  -16.2540   -2.5900 O   0  0  0  0  0  0  0  0  0  0  0  0
    1.3070  -16.5730   -2.0680 N   0  0  0  0  0  0  0  0  0  0  0  0
    1.5960  -15.1510   -1.9100 C   0  0  1  0  0  0  0  0  0  0  0  0
    2.6180  -14.9260   -0.7940 C   0  0  0  0  0  0  0  0  0  0  0  0
    2.0390  -15.1440    0.4810 O   0  0  0  0  0  0  0  0  0  0  0  0
    2.1070  -14.5500   -3.2140 C   0  0  0  0  0  0  0  0  0  0  0  0
    2.6380  -15.2590   -4.0670 O   0  0  0  0  0  0  0  0  0  0  0  0
    1.9970  -13.3450   -3.4360 O   0  0  0  0  0  0  0  0  0  0  0  0
 42 40  1  0
 40 38  1  0
 40 41  1  1
 38 39  2  0
 38 37  1  0
 37 31  1  0
 31 29  1  0
 31 32  1  1
 29 30  2  0
 29 28  1  0
 32 33  1  0
 33 34  1  0
 34 35  1  0
 35 36  1  0
 28 22  1  0
 22 20  1  0
 22 23  1  6
 20 21  2  0
 20 19  1  0
 23 24  1  0
 24 25  1  0
 25 27  2  0
 25 26  1  0
 18 19  1  1
 18 16  1  0
 18 43  1  0
 16 17  2  0
 16 15  1  0
 43 45  1  0
 43 44  1  1
 15 13  1  0
 13 11  1  0
 13 14  1  6
 11 12  2  0
 11 10  1  0
 10  9  1  0
  9 46  1  0
  9  8  1  1
 46 47  2  0
 46 48  1  0
  8  7  1  0
  7  6  1  0
  6  5  1  0
  5  3  1  0
  3  2  2  0
  3  4  1  0
 48 49  1  0
 49 62  1  0
 49 50  1  6
 62 63  2  0
 62 64  1  0
 50 51  1  0
 51 52  1  0
 52 53  1  0
 53 54  1  0
 54 55  1  0
 55 56  1  0
 56 57  2  0
 56 61  1  0
 57 58  1  0
 58 59  2  0
 59 60  1  0
 60 61  2  0
 64 65  1  0
 65 68  1  0
 65 66  1  1
 68 69  2  0
 68 70  1  0
 66 67  1  0
  2  1  1  0
M  CHG  3  36   1  42   1  54   1
M  END
$$$$
