
     RDKit          3D

 70 70  0  0  0  0  0  0  0  0999 V2000
   -4.5020  -15.1542    4.4268 H   0  0  0  0  0  0  0  0  0  0  0  0
   -3.7301  -16.0392    4.6630 N   0  0  0  0  0  0  0  0  0  0  0  0
   -3.3291  -16.5261    3.4818 C   0  0  0  0  0  0  0  0  0  0  0  0
   -4.1152  -16.4011    2.4249 N   0  0  0  0  0  0  0  0  0  0  0  0
   -2.1593  -17.1770    3.3605 N   0  0  0  0  0  0  0  0  0  0  0  0
   -1.5331  -17.5901    2.1028 C   0  0  0  0  0  0  0  0  0  0  0  0
   -2.4749  -18.5504    1.4172 C   0  0  0  0  0  0  0  0  0  0  0  0
   -1.9520  -19.9815    1.4533 C   0  0  0  0  0  0  0  0  0  0  0  0
   -1.1067  -20.3800    0.2333 C   0  0  1  0  0  0  0  0  0  0  0  0
   -1.4768  -21.6705   -0.3091 N   0  0  0  0  0  0  0  0  0  0  0  0
   -2.5433  -22.3255    0.1919 C   0  0  0  0  0  0  0  0  0  0  0  0
   -3.6817  -21.9286    0.0487 O   0  0  0  0  0  0  0  0  0  0  0  0
   -2.2682  -23.7677    0.6091 C   0  0  2  0  0  0  0  0  0  0  0  0
   -0.8987  -24.2449    0.0814 C   0  0  0  0  0  0  0  0  0  0  0  0
   -3.3392  -24.6019    0.2331 N   0  0  0  0  0  0  0  0  0  0  0  0
   -3.2074  -25.9412    0.2284 C   0  0  0  0  0  0  0  0  0  0  0  0
   -2.1422  -26.4919    0.2730 O   0  0  0  0  0  0  0  0  0  0  0  0
   -4.5254  -26.6797    0.5994 C   0  0  2  0  0  0  0  0  0  0  0  0
   -4.1880  -28.0634    0.8494 N   0  0  0  0  0  0  0  0  0  0  0  0
   -4.2132  -29.0209   -0.0876 C   0  0  0  0  0  0  0  0  0  0  0  0
   -4.9604  -28.8706   -1.2012 O   0  0  0  0  0  0  0  0  0  0  0  0
   -3.7039  -30.4068    0.2944 C   0  0  2  0  0  0  0  0  0  0  0  0
   -3.5546  -31.2901   -0.9526 C   0  0  0  0  0  0  0  0  0  0  0  0
   -2.1147  -31.8432   -1.0476 C   0  0  0  0  0  0  0  0  0  0  0  0
   -1.9386  -33.2087   -0.4555 C   0  0  0  0  0  0  0  0  0  0  0  0
   -1.9997  -34.2749   -1.2704 N   0  0  0  0  0  0  0  0  0  0  0  0
   -2.0252  -33.3561    0.7806 O   0  0  0  0  0  0  0  0  0  0  0  0
   -4.6914  -31.0114    1.1923 N   0  0  0  0  0  0  0  0  0  0  0  0
   -5.9630  -31.0646    0.9370 C   0  0  0  0  0  0  0  0  0  0  0  0
   -6.5148  -30.4412   -0.0096 O   0  0  0  0  0  0  0  0  0  0  0  0
   -6.7431  -32.1823    1.6380 C   0  0  2  0  0  0  0  0  0  0  0  0
   -7.0444  -33.2974    0.6296 C   0  0  0  0  0  0  0  0  0  0  0  0
   -5.8645  -33.7171   -0.1966 C   0  0  0  0  0  0  0  0  0  0  0  0
   -5.5544  -35.1859    0.0097 C   0  0  0  0  0  0  0  0  0  0  0  0
   -6.7833  -36.0676   -0.1630 C   0  0  0  0  0  0  0  0  0  0  0  0
   -8.0026  -35.2113   -0.1272 N   0  0  0  0  0  0  0  0  0  0  0  0
   -8.0155  -31.6591    2.1735 N   0  0  0  0  0  0  0  0  0  0  0  0
   -9.0190  -31.3223    1.4038 C   0  0  0  0  0  0  0  0  0  0  0  0
   -8.9828  -31.3027    0.1704 O   0  0  0  0  0  0  0  0  0  0  0  0
  -10.3346  -30.9934    2.0628 C   0  0  2  0  0  0  0  0  0  0  0  0
  -10.1666  -29.7197    2.9183 C   0  0  0  0  0  0  0  0  0  0  0  0
  -10.7888  -32.1251    2.9354 N   0  0  0  0  0  0  0  0  0  0  0  0
   -5.5496  -26.5259   -0.5456 C   0  0  1  0  0  0  0  0  0  0  0  0
   -6.2691  -27.8526   -0.8296 C   0  0  0  0  0  0  0  0  0  0  0  0
   -6.5301  -25.5337   -0.2129 O   0  0  0  0  0  0  0  0  0  0  0  0
   -1.1987  -19.3609   -0.9046 C   0  0  0  0  0  0  0  0  0  0  0  0
   -2.2727  -19.1758   -1.4577 O   0  0  0  0  0  0  0  0  0  0  0  0
   -0.0712  -18.8817   -1.3869 N   0  0  0  0  0  0  0  0  0  0  0  0
    0.0490  -18.5220   -2.8610 C   0  0  2  0  0  0  0  0  0  0  0  0
    1.1726  -19.3273   -3.5004 C   0  0  0  0  0  0  0  0  0  0  0  0
    0.6663  -20.1676   -4.6356 C   0  0  0  0  0  0  0  0  0  0  0  0
    0.0537  -19.2457   -5.7619 C   0  0  0  0  0  0  0  0  0  0  0  0
    0.8118  -19.3116   -7.0722 C   0  0  0  0  0  0  0  0  0  0  0  0
    0.2820  -20.3266   -7.9891 N   0  0  0  0  0  0  0  0  0  0  0  0
   -0.7712  -19.6541   -8.7743 C   0  0  0  0  0  0  0  0  0  0  0  0
   -1.2037  -20.4643   -9.9921 C   0  0  0  0  0  0  0  0  0  0  0  0
   -0.3838  -20.4896  -11.1323 C   0  0  0  0  0  0  0  0  0  0  0  0
   -0.9249  -20.7835  -12.3270 C   0  0  0  0  0  0  0  0  0  0  0  0
   -2.2377  -21.1919  -12.4835 C   0  0  0  0  0  0  0  0  0  0  0  0
   -3.0279  -21.3076  -11.3073 C   0  0  0  0  0  0  0  0  0  0  0  0
   -2.4896  -20.9674  -10.0510 C   0  0  0  0  0  0  0  0  0  0  0  0
    0.3101  -17.0579   -3.0300 C   0  0  0  0  0  0  0  0  0  0  0  0
   -0.6299  -16.2375   -2.8215 O   0  0  0  0  0  0  0  0  0  0  0  0
    1.3953  -16.7267   -3.6760 N   0  0  0  0  0  0  0  0  0  0  0  0
    2.2653  -15.5659   -3.2224 C   0  0  1  0  0  0  0  0  0  0  0  0
    3.6570  -16.0539   -2.9762 C   0  0  0  0  0  0  0  0  0  0  0  0
    3.9622  -15.9169   -1.5334 O   0  0  0  0  0  0  0  0  0  0  0  0
    2.2676  -14.5049   -4.2773 C   0  0  0  0  0  0  0  0  0  0  0  0
    3.3269  -14.2175   -4.8220 O   0  0  0  0  0  0  0  0  0  0  0  0
    1.3719  -13.7053   -4.3622 O   0  0  0  0  0  0  0  0  0  0  0  0
 42 40  1  0
 40 38  1  0
 40 41  1  1
 38 39  2  0
 38 37  1  0
 37 31  1  0
 31 29  1  0
 31 32  1  6
 29 30  2  0
 29 28  1  0
 32 33  1  0
 33 34  1  0
 34 35  1  0
 35 36  1  0
 28 22  1  0
 22 20  1  0
 22 23  1  6
 20 21  2  0
 20 19  1  0
 23 24  1  0
 24 25  1  0
 25 27  2  0
 25 26  1  0
 18 19  1  1
 18 16  1  0
 18 43  1  0
 16 17  2  0
 16 15  1  0
 43 45  1  0
 43 44  1  1
 15 13  1  0
 13 11  1  0
 13 14  1  6
 11 12  2  0
 11 10  1  0
 10  9  1  0
  9 46  1  0
  9  8  1  6
 46 47  2  0
 46 48  1  0
  8  7  1  0
  7  6  1  0
  6  5  1  0
  5  3  1  0
  3  2  2  0
  3  4  1  0
 48 49  1  0
 49 62  1  0
 49 50  1  6
 62 63  2  0
 62 64  1  0
 50 51  1  0
 51 52  1  0
 52 53  1  0
 53 54  1  0
 54 55  1  0
 55 56  1  0
 56 57  4  0
 56 61  4  0
 57 58  4  0
 58 59  4  0
 59 60  4  0
 60 61  4  0
 64 65  1  0
 65 68  1  0
 65 66  1  6
 68 69  2  0
 68 70  1  0
 66 67  1  0
  2  1  1  0
M  CHG  3  36   1  42   1  54   1
M  END
$$$$
