
     RDKit          3D

113120  0  0  0  0  0  0  0  0999 V2000
   -2.2172  -23.8745   25.4619 H   0  0  0  0  0  0  0  0  0  0  0  0
   -3.2756  -24.4938   25.4103 N   0  0  0  0  0  0  0  0  0  0  0  0
   -3.5923  -24.4994   24.1051 C   0  0  0  0  0  0  0  0  0  0  0  0
   -4.7885  -24.8847   23.6503 N   0  0  0  0  0  0  0  0  0  0  0  0
   -2.6045  -24.0652   23.1961 N   0  0  0  0  0  0  0  0  0  0  0  0
   -1.3867  -23.4709   23.5648 C   0  0  0  0  0  0  0  0  0  0  0  0
   -1.5382  -22.1472   24.3704 C   0  0  0  0  0  0  0  0  0  0  0  0
   -0.5924  -21.0963   23.8147 C   0  0  0  0  0  0  0  0  0  0  0  0
   -0.8905  -20.5524   22.3799 C   0  0  1  0  0  0  0  0  0  0  0  0
   -1.2183  -21.6637   21.5070 N   0  0  0  0  0  0  0  0  0  0  0  0
   -2.1152  -22.5809   21.8281 C   0  0  0  0  0  0  0  0  0  0  0  0
   -2.6220  -22.6826   22.9265 O   0  0  0  0  0  0  0  0  0  0  0  0
   -2.3096  -23.6956   20.8154 C   0  0  2  0  0  0  0  0  0  0  0  0
   -0.9163  -24.1233   20.5238 O   0  0  0  0  0  0  0  0  0  0  0  0
   -1.4759  -23.5558   19.6019 N   0  0  0  0  0  0  0  0  0  0  0  0
   -0.3161  -24.1213   19.4346 C   0  0  0  0  0  0  0  0  0  0  0  0
    0.0710  -24.9768   20.2253 O   0  0  0  0  0  0  0  0  0  0  0  0
    0.3345  -23.9847   18.0525 C   0  0  2  0  0  0  0  0  0  0  0  0
    1.7708  -23.5153   18.1711 C   0  0  0  0  0  0  0  0  0  0  0  0
    1.9810  -22.1257   17.5781 C   0  0  0  0  0  0  0  0  0  0  0  0
    1.5606  -21.1646   18.2424 O   0  0  0  0  0  0  0  0  0  0  0  0
    2.3039  -22.0810   16.3883 O   0  0  0  0  0  0  0  0  0  0  0  0
   -0.4241  -23.0223   17.2467 N   0  0  0  0  0  0  0  0  0  0  0  0
   -1.4687  -23.4532   16.5306 C   0  0  0  0  0  0  0  0  0  0  0  0
   -1.7514  -24.6633   16.4505 O   0  0  0  0  0  0  0  0  0  0  0  0
   -2.2505  -22.4690   15.6628 C   0  0  2  0  0  0  0  0  0  0  0  0
   -1.7695  -22.4705   14.2084 C   0  0  0  0  0  0  0  0  0  0  0  0
   -2.0077  -21.1390   13.7296 C   0  0  0  0  0  0  0  0  0  0  0  0
   -1.7639  -20.2280   14.8760 C   0  0  0  0  0  0  0  0  0  0  0  0
   -2.1058  -21.0681   16.0656 N   0  0  0  0  0  0  0  0  0  0  0  0
   -2.4932  -20.6398   17.2667 C   0  0  0  0  0  0  0  0  0  0  0  0
   -2.7138  -21.4718   18.2047 O   0  0  0  0  0  0  0  0  0  0  0  0
   -2.5361  -19.1440   17.5107 C   0  0  1  0  0  0  0  0  0  0  0  0
   -2.9929  -18.4190   16.2475 C   0  0  0  0  0  0  0  0  0  0  0  0
   -4.2864  -17.6821   16.4723 C   0  0  0  0  0  0  0  0  0  0  0  0
   -5.5179  -18.3453   16.1788 C   0  0  0  0  0  0  0  0  0  0  0  0
   -6.5645  -18.2939   17.1098 C   0  0  0  0  0  0  0  0  0  0  0  0
   -6.4808  -17.4040   18.1877 C   0  0  0  0  0  0  0  0  0  0  0  0
   -5.4044  -16.6120   18.3421 C   0  0  0  0  0  0  0  0  0  0  0  0
   -4.3502  -16.6144   17.3846 C   0  0  0  0  0  0  0  0  0  0  0  0
   -3.4200  -18.8710   18.6260 N   0  0  0  0  0  0  0  0  0  0  0  0
   -4.4113  -17.9701   18.5493 C   0  0  0  0  0  0  0  0  0  0  0  0
   -5.4178  -18.1849   17.7873 O   0  0  0  0  0  0  0  0  0  0  0  0
   -5.7248  -18.7253   20.1173 C   0  0  1  0  0  0  0  0  0  0  0  0
   -6.2756  -18.3991   19.9160 C   0  0  0  0  0  0  0  0  0  0  0  0
   -7.0758  -18.5474   21.6190 S   0  0  0  0  0  0  0  0  0  0  0  0
   -5.2986  -17.9718   22.3893 S   0  0  0  0  0  0  0  0  0  0  0  0
   -5.0622  -18.8511   23.9984 C   0  0  0  0  0  0  0  0  0  0  0  0
   -4.0542  -19.3464   23.8141 C   0  0  1  0  0  0  0  0  0  0  0  0
   -2.6269  -19.1850   23.5077 N   0  0  0  0  0  0  0  0  0  0  0  0
   -2.0470  -19.5402   22.3433 C   0  0  0  0  0  0  0  0  0  0  0  0
   -3.2609  -20.8937   22.1889 O   0  0  0  0  0  0  0  0  0  0  0  0
   -3.6096  -20.8632   24.3440 C   0  0  0  0  0  0  0  0  0  0  0  0
   -3.1620  -20.7976   25.5057 O   0  0  0  0  0  0  0  0  0  0  0  0
   -3.7210  -22.0286   23.6930 N   0  0  0  0  0  0  0  0  0  0  0  0
   -3.6952  -23.2772   24.4298 C   0  0  1  0  0  0  0  0  0  0  0  0
   -4.7085  -21.1054   25.7712 C   0  0  0  0  0  0  0  0  0  0  0  0
   -3.6559  -21.9279   26.5381 C   0  0  0  0  0  0  0  0  0  0  0  0
   -4.2509  -22.7573   27.5731 C   0  0  0  0  0  0  0  0  0  0  0  0
   -4.3373  -22.1982   28.8795 C   0  0  0  0  0  0  0  0  0  0  0  0
   -3.5494  -21.1076   29.1799 C   0  0  0  0  0  0  0  0  0  0  0  0
   -3.8486  -20.3525   30.2666 O   0  0  0  0  0  0  0  0  0  0  0  0
   -2.6670  -20.6024   28.2461 C   0  0  0  0  0  0  0  0  0  0  0  0
   -2.5523  -21.2057   27.0255 C   0  0  0  0  0  0  0  0  0  0  0  0
   -5.0171  -23.5258   25.1171 C   0  0  0  0  0  0  0  0  0  0  0  0
   -6.0874  -23.4337   24.4584 O   0  0  0  0  0  0  0  0  0  0  0  0
   -4.9610  -23.9526   26.3691 N   0  0  0  0  0  0  0  0  0  0  0  0
   -6.1080  -23.8283   27.2749 C   0  0  2  0  0  0  0  0  0  0  0  0
   -5.6308  -23.5732   28.6674 C   0  0  0  0  0  0  0  0  0  0  0  0
   -5.0362  -24.8754   29.3694 C   0  0  0  0  0  0  0  0  0  0  0  0
   -4.3074  -24.5420   30.6456 C   0  0  0  0  0  0  0  0  0  0  0  0
   -3.5358  -23.2276   30.5524 C   0  0  0  0  0  0  0  0  0  0  0  0
   -4.4092  -22.0493   30.5237 N   0  0  0  0  0  0  0  0  0  0  0  0
   -7.0637  -25.0359   27.2150 C   0  0  0  0  0  0  0  0  0  0  0  0
   -7.7507  -25.3451   28.2163 O   0  0  0  0  0  0  0  0  0  0  0  0
   -7.2377  -25.6225   26.0357 N   0  0  0  0  0  0  0  0  0  0  0  0
   -8.2805  -26.5802   25.8343 C   0  0  1  0  0  0  0  0  0  0  0  0
   -8.3072  -27.6051   26.9653 C   0  0  0  0  0  0  0  0  0  0  0  0
   -8.6996  -26.9173   28.2116 O   0  0  0  0  0  0  0  0  0  0  0  0
   -9.6350  -25.8629   25.6764 C   0  0  0  0  0  0  0  0  0  0  0  0
   -9.7278  -24.6310   25.7400 O   0  0  0  0  0  0  0  0  0  0  0  0
  -10.7125  -26.6398   25.6405 N   0  0  0  0  0  0  0  0  0  0  0  0
  -12.0584  -26.1024   25.4182 C   0  0  1  0  0  0  0  0  0  0  0  0
  -12.0174  -24.5835   25.2973 C   0  0  0  0  0  0  0  0  0  0  0  0
  -10.9030  -24.1270   24.3717 C   0  0  0  0  0  0  0  0  0  0  0  0
  -10.1564  -25.2770   23.6451 C   0  0  0  0  0  0  0  0  0  0  0  0
  -10.0456  -26.4549   24.5709 C   0  0  0  0  0  0  0  0  0  0  0  0
  -10.1180  -27.7217   23.8341 N   0  0  0  0  0  0  0  0  0  0  0  0
  -12.6158  -26.7420   24.1853 C   0  0  0  0  0  0  0  0  0  0  0  0
  -12.8144  -27.9841   24.1334 O   0  0  0  0  0  0  0  0  0  0  0  0
  -12.7531  -25.9985   23.0482 N   0  0  0  0  0  0  0  0  0  0  0  0
  -13.2827  -26.5890   21.7893 C   0  0  0  0  0  0  0  0  0  0  0  0
  -13.1085  -25.5001   20.7794 C   0  0  0  0  0  0  0  0  0  0  0  0
  -13.0439  -24.2168   21.5162 C   0  0  0  0  0  0  0  0  0  0  0  0
  -12.3395  -24.6186   22.8527 C   0  0  2  0  0  0  0  0  0  0  0  0
  -10.8141  -24.4994   22.7463 C   0  0  0  0  0  0  0  0  0  0  0  0
  -10.1549  -25.4197   22.2092 O   0  0  0  0  0  0  0  0  0  0  0  0
  -10.2939  -23.3169   23.0136 N   0  0  0  0  0  0  0  0  0  0  0  0
  -10.9144  -22.2070   23.7900 C   0  0  0  0  0  0  0  0  0  0  0  0
   -9.7868  -21.7129   24.6193 C   0  0  0  0  0  0  0  0  0  0  0  0
   -8.6223  -21.8070   23.6947 C   0  0  0  0  0  0  0  0  0  0  0  0
   -8.8449  -23.1313   22.9694 C   0  0  2  0  0  0  0  0  0  0  0  0
   -8.3372  -23.0558   21.5241 C   0  0  0  0  0  0  0  0  0  0  0  0
   -9.1227  -23.0186   20.5692 O   0  0  0  0  0  0  0  0  0  0  0  0
   -7.0322  -23.2440   21.3683 N   0  0  0  0  0  0  0  0  0  0  0  0
   -6.3525  -23.0158   20.1084 C   0  0  2  0  0  0  0  0  0  0  0  0
   -5.5001  -24.2202   19.6715 C   0  0  1  0  0  0  0  0  0  0  0  0
   -4.2290  -23.7413   19.0119 C   0  0  0  0  0  0  0  0  0  0  0  0
   -5.2032  -25.1651   20.8871 C   0  0  0  0  0  0  0  0  0  0  0  0
   -4.9907  -24.3750   22.2212 C   0  0  0  0  0  0  0  0  0  0  0  0
   -5.5208  -21.7833   20.2675 C   0  0  0  0  0  0  0  0  0  0  0  0
   -4.6588  -21.6954   21.1553 O   0  0  0  0  0  0  0  0  0  0  0  0
   -5.8627  -20.6911   19.5210 N   0  0  0  0  0  0  0  0  0  0  0  0
 15 13  1  0
 15 16  1  0
 15 14  1  0
 13 11  1  0
 13 14  1  1
 11 12  2  0
 11 10  1  0
 10  9  1  0
  9 51  1  0
  9  8  1  6
 51 52  2  0
 51 50  1  0
  8  7  1  0
  7  6  1  0
  6  5  1  0
  5  3  1  0
  3  4  1  0
  3  2  2  0
 49 50  1  6
 49 53  1  0
 49 48  1  0
 53 54  2  0
 53 55  1  0
 48 47  1  0
 47 46  1  0
 55 56  1  0
 56 65  1  0
 56 57  1  1
 65 66  2  0
 65 67  1  0
 57 58  1  0
 58 59  4  0
 58 64  4  0
 59 60  4  0
 64 63  4  0
 60 61  4  0
 63 61  4  0
 61 62  1  0
 67 68  1  0
 68 74  1  0
 68 69  1  6
 74 75  2  0
 74 76  1  0
 69 70  1  0
 70 71  1  0
 71 72  1  0
 72 73  1  0
 76 77  1  0
 77 80  1  0
 77 78  1  1
 80 81  2  0
 80 82  1  0
 78 79  1  0
 82 83  1  0
 83 89  1  0
 83 84  1  6
 89 90  2  0
 89 91  1  0
 84 85  1  0
 85 86  1  0
 86 87  1  0
 87 88  1  0
 91 95  1  0
 91 92  1  0
 95 96  1  0
 95 94  1  1
 96 97  2  0
 96 98  1  0
 94 93  1  0
 93 92  1  0
 98102  1  0
 98 99  1  0
102103  1  0
102101  1  6
103104  2  0
103105  1  0
101100  1  0
100 99  1  0
106105  1  6
106111  1  0
106107  1  0
111112  2  0
111113  1  0
107109  1  0
107108  1  1
109110  1  0
 44113  1  1
 44 42  1  0
 44 45  1  0
 42 43  2  0
 42 41  1  0
 45 46  1  0
 41 33  1  0
 33 31  1  0
 33 34  1  1
 31 32  2  0
 31 30  1  0
 34 35  1  0
 35 36  4  0
 35 40  4  0
 36 37  4  0
 40 39  4  0
 37 38  4  0
 39 38  4  0
 30 26  1  0
 30 29  1  0
 26 24  1  0
 26 27  1  6
 24 25  2  0
 24 23  1  0
 27 28  1  0
 28 29  1  0
 23 18  1  0
 18 16  1  0
 18 19  1  1
 16 17  2  0
 19 20  1  0
 20 22  1  0
 20 21  2  0
  2  1  1  0
M  CHG  2  73   1  88   1
M  END
$$$$
