
     RDKit          3D

111117  0  0  0  0  0  0  0  0999 V2000
   -6.9321    5.4316   38.6044 H   0  0  0  0  0  0  0  0  0  0  0  0
   -6.8070    5.3690   37.5940 N   0  0  0  0  0  0  0  0  0  0  0  0
   -5.6020    5.1240   37.0870 C   0  0  0  0  0  0  0  0  0  0  0  0
   -5.4520    5.0440   35.7670 N   0  0  0  0  0  0  0  0  0  0  0  0
   -4.5570    4.9600   37.8960 N   0  0  0  0  0  0  0  0  0  0  0  0
   -3.1920    4.6590   37.4530 C   0  0  0  0  0  0  0  0  0  0  0  0
   -2.1310    5.6500   37.9530 C   0  0  0  0  0  0  0  0  0  0  0  0
   -2.5200    7.0870   37.6740 C   0  0  0  0  0  0  0  0  0  0  0  0
   -1.3560    8.0840   37.6090 C   0  0  2  0  0  0  0  0  0  0  0  0
   -0.7520    8.2490   38.9290 N   0  0  0  0  0  0  0  0  0  0  0  0
    0.3820    8.9360   39.0630 C   0  0  0  0  0  0  0  0  0  0  0  0
    0.9980    9.3880   38.0950 O   0  0  0  0  0  0  0  0  0  0  0  0
    0.9290    9.1420   40.4650 C   0  0  2  0  0  0  0  0  0  0  0  0
    0.0740    8.6520   41.5020 O   0  0  0  0  0  0  0  0  0  0  0  0
    0.0350    8.7950   41.5520 N   0  0  0  0  0  0  0  0  0  0  0  0
    0.3100    7.6430   42.1690 C   0  0  0  0  0  0  0  0  0  0  0  0
    1.2390    6.8970   41.8560 O   0  0  0  0  0  0  0  0  0  0  0  0
   -0.5500    7.3170   43.3840 C   0  0  2  0  0  0  0  0  0  0  0  0
   -1.1760    5.9250   43.2300 C   0  0  0  0  0  0  0  0  0  0  0  0
   -1.7590    5.6830   41.8390 C   0  0  0  0  0  0  0  0  0  0  0  0
   -1.7830    4.5000   41.4290 O   0  0  0  0  0  0  0  0  0  0  0  0
   -2.1960    6.6480   41.1660 O   0  0  0  0  0  0  0  0  0  0  0  0
   -1.5780    8.3320   43.6310 N   0  0  0  0  0  0  0  0  0  0  0  0
   -1.2940    9.4580   44.2800 C   0  0  0  0  0  0  0  0  0  0  0  0
   -0.1570    9.7030   44.7090 O   0  0  0  0  0  0  0  0  0  0  0  0
   -2.4080   10.4660   44.5080 C   0  0  2  0  0  0  0  0  0  0  0  0
   -3.1410   10.2250   45.8370 C   0  0  0  0  0  0  0  0  0  0  0  0
   -4.5270   10.7090   45.5770 C   0  0  0  0  0  0  0  0  0  0  0  0
   -4.8230   10.3540   44.1440 C   0  0  0  0  0  0  0  0  0  0  0  0
   -3.4940   10.4120   43.5120 N   0  0  0  0  0  0  0  0  0  0  0  0
   -3.2200   10.6170   42.2240 C   0  0  0  0  0  0  0  0  0  0  0  0
   -2.0690   10.8190   41.8300 O   0  0  0  0  0  0  0  0  0  0  0  0
   -4.3850   10.6150   41.2450 C   0  0  2  0  0  0  0  0  0  0  0  0
   -4.7280    9.1730   40.8380 C   0  0  0  0  0  0  0  0  0  0  0  0
   -5.9440    9.0770   39.9470 C   0  0  0  0  0  0  0  0  0  0  0  0
   -7.2110    8.9590   40.4880 C   0  0  0  0  0  0  0  0  0  0  0  0
   -8.3340    8.8860   39.6570 C   0  0  0  0  0  0  0  0  0  0  0  0
   -8.1810    8.9470   38.2880 C   0  0  0  0  0  0  0  0  0  0  0  0
   -6.9230    9.0800   37.7470 C   0  0  0  0  0  0  0  0  0  0  0  0
   -5.8170    9.1450   38.5720 C   0  0  0  0  0  0  0  0  0  0  0  0
   -4.0420   11.3840   40.0620 N   0  0  0  0  0  0  0  0  0  0  0  0
   -4.7810   12.3800   39.5960 C   0  0  0  0  0  0  0  0  0  0  0  0
   -5.7800   12.8190   40.1820 O   0  0  0  0  0  0  0  0  0  0  0  0
   -4.2950   12.9740   38.2820 C   0  0  2  0  0  0  0  0  0  0  0  0
   -3.1280   13.9370   38.5430 C   0  0  0  0  0  0  0  0  0  0  0  0
   -2.2680   14.4660   37.0270 S   0  0  0  0  0  0  0  0  0  0  0  0
   -0.8440   13.0240   36.5800 S   0  0  0  0  0  0  0  0  0  0  0  0
   -1.3040   12.1250   35.0680 C   0  0  0  0  0  0  0  0  0  0  0  0
   -2.2590   10.9270   35.2490 C   0  0  2  0  0  0  0  0  0  0  0  0
   -1.6340    9.7710   35.8780 N   0  0  0  0  0  0  0  0  0  0  0  0
   -1.8990    9.4240   37.1390 C   0  0  0  0  0  0  0  0  0  0  0  0
   -2.5670   10.1300   37.9010 O   0  0  0  0  0  0  0  0  0  0  0  0
   -2.7930   10.5140   33.8890 C   0  0  0  0  0  0  0  0  0  0  0  0
   -2.0910    9.8630   33.1070 O   0  0  0  0  0  0  0  0  0  0  0  0
   -4.0360   10.8960   33.6080 N   0  0  0  0  0  0  0  0  0  0  0  0
   -4.5440   10.6800   32.2650 C   0  0  1  0  0  0  0  0  0  0  0  0
   -6.0450   10.9450   32.2050 C   0  0  1  0  0  0  0  0  0  0  0  0
   -6.7860   10.1150   33.2510 C   0  0  0  0  0  0  0  0  0  0  0  0
   -6.2960   12.3450   32.3870 O   0  0  0  0  0  0  0  0  0  0  0  0
   -3.8420   11.6030   31.2790 C   0  0  0  0  0  0  0  0  0  0  0  0
   -3.2010   12.5920   31.6480 O   0  0  0  0  0  0  0  0  0  0  0  0
   -3.9840   11.2750   29.9950 N   0  0  0  0  0  0  0  0  0  0  0  0
   -3.3180   12.0070   28.9260 C   0  0  1  0  0  0  0  0  0  0  0  0
   -2.5980   11.0370   27.9980 C   0  0  0  0  0  0  0  0  0  0  0  0
   -1.4040   10.4300   28.7500 C   0  0  0  0  0  0  0  0  0  0  0  0
   -0.6350    9.4180   27.9630 C   0  0  0  0  0  0  0  0  0  0  0  0
    0.4600    8.8330   28.8350 C   0  0  0  0  0  0  0  0  0  0  0  0
    1.2360    7.8210   28.1070 N   0  0  0  0  0  0  0  0  0  0  0  0
   -4.2560   12.9740   28.2140 C   0  0  0  0  0  0  0  0  0  0  0  0
   -4.1360   13.2070   27.0080 O   0  0  0  0  0  0  0  0  0  0  0  0
   -5.2020   13.5370   28.9550 N   0  0  0  0  0  0  0  0  0  0  0  0
   -6.0910   14.5710   28.4570 C   0  0  1  0  0  0  0  0  0  0  0  0
   -7.4610   14.4310   29.1300 C   0  0  0  0  0  0  0  0  0  0  0  0
   -7.3280   14.3340   30.5560 O   0  0  0  0  0  0  0  0  0  0  0  0
   -5.5040   15.9560   28.7330 C   0  0  0  0  0  0  0  0  0  0  0  0
   -4.5660   16.1230   29.5150 O   0  0  0  0  0  0  0  0  0  0  0  0
   -6.0800   16.9610   28.0820 N   0  0  0  0  0  0  0  0  0  0  0  0
   -5.7770   18.3550   28.3910 C   0  0  1  0  0  0  0  0  0  0  0  0
   -5.4070   19.1150   27.1120 C   0  0  0  0  0  0  0  0  0  0  0  0
   -5.0750   20.5820   27.3510 C   0  0  0  0  0  0  0  0  0  0  0  0
   -4.8240   21.3280   26.0500 C   0  0  0  0  0  0  0  0  0  0  0  0
   -6.0610   21.6000   25.3250 N   0  0  0  0  0  0  0  0  0  0  0  0
   -6.8940   22.5960   25.6110 C   0  0  0  0  0  0  0  0  0  0  0  0
   -6.6270   23.4240   26.6150 N   0  0  0  0  0  0  0  0  0  0  0  0
   -7.9930   22.7670   24.8920 N   0  0  0  0  0  0  0  0  0  0  0  0
   -8.2002   22.1346   24.1190 H   0  0  0  0  0  0  0  0  0  0  0  0
   -6.9970   18.9840   29.0480 C   0  0  0  0  0  0  0  0  0  0  0  0
   -8.0260   19.1670   28.3810 O   0  0  0  0  0  0  0  0  0  0  0  0
   -6.9630   19.2930   30.3540 N   0  0  0  0  0  0  0  0  0  0  0  0
   -8.1160   19.9150   31.0320 C   0  0  0  0  0  0  0  0  0  0  0  0
   -7.6460   20.0520   32.4710 C   0  0  0  0  0  0  0  0  0  0  0  0
   -6.1580   20.0210   32.4270 C   0  0  0  0  0  0  0  0  0  0  0  0
   -5.8530   19.0520   31.2800 C   0  0  1  0  0  0  0  0  0  0  0  0
   -5.8600   17.6110   31.7840 C   0  0  0  0  0  0  0  0  0  0  0  0
   -6.8660   16.9180   31.6190 O   0  0  0  0  0  0  0  0  0  0  0  0
   -4.7450   17.1590   32.3550 N   0  0  0  0  0  0  0  0  0  0  0  0
   -3.4580   17.8600   32.5040 C   0  0  0  0  0  0  0  0  0  0  0  0
   -2.7200   16.9830   33.4710 C   0  0  0  0  0  0  0  0  0  0  0  0
   -3.2020   15.6050   33.2100 C   0  0  0  0  0  0  0  0  0  0  0  0
   -4.6880   15.7910   32.8840 C   0  0  1  0  0  0  0  0  0  0  0  0
   -5.5210   15.6510   34.1450 C   0  0  0  0  0  0  0  0  0  0  0  0
   -5.6770   16.5910   34.9300 O   0  0  0  0  0  0  0  0  0  0  0  0
   -6.0520   14.4490   34.3300 N   0  0  0  0  0  0  0  0  0  0  0  0
   -6.7200   14.0530   35.5630 C   0  0  1  0  0  0  0  0  0  0  0  0
   -7.9940   13.2570   35.2470 C   0  0  1  0  0  0  0  0  0  0  0  0
   -8.6090   12.6770   36.5110 C   0  0  0  0  0  0  0  0  0  0  0  0
   -8.9990   14.1470   34.5090 C   0  0  0  0  0  0  0  0  0  0  0  0
   -9.9860   13.3900   33.6460 C   0  0  0  0  0  0  0  0  0  0  0  0
   -5.7260   13.1960   36.3290 C   0  0  0  0  0  0  0  0  0  0  0  0
   -5.2530   12.1790   35.8120 O   0  0  0  0  0  0  0  0  0  0  0  0
   -5.3820   13.6080   37.5500 N   0  0  0  0  0  0  0  0  0  0  0  0
 15 13  1  0
 15 16  1  0
 15 14  1  0
 13 11  1  0
 13 14  1  6
 11 12  2  0
 11 10  1  0
 10  9  1  0
  9 51  1  0
  9  8  1  1
 51 52  2  0
 51 50  1  0
  8  7  1  0
  7  6  1  0
  6  5  1  0
  5  3  1  0
  3  4  1  0
  3  2  2  0
 49 50  1  6
 49 53  1  0
 49 48  1  0
 53 54  2  0
 53 55  1  0
 48 47  1  0
 47 46  1  0
 56 55  1  1
 56 60  1  0
 56 57  1  0
 60 61  2  0
 60 62  1  0
 57 59  1  0
 57 58  1  1
 62 63  1  0
 63 69  1  0
 63 64  1  6
 69 70  2  0
 69 71  1  0
 64 65  1  0
 65 66  1  0
 66 67  1  0
 67 68  1  0
 71 72  1  0
 72 75  1  0
 72 73  1  1
 75 76  2  0
 75 77  1  0
 73 74  1  0
 77 78  1  0
 78 87  1  0
 78 79  1  6
 87 88  2  0
 87 89  1  0
 79 80  1  0
 80 81  1  0
 81 82  1  0
 82 83  1  0
 83 84  1  0
 83 85  2  0
 89 93  1  0
 89 90  1  0
 93 94  1  0
 93 92  1  1
 94 95  2  0
 94 96  1  0
 92 91  1  0
 91 90  1  0
 96100  1  0
 96 97  1  0
100101  1  0
100 99  1  1
101102  2  0
101103  1  0
 99 98  1  0
 98 97  1  0
104103  1  6
104109  1  0
104105  1  0
109110  2  0
109111  1  0
105107  1  0
105106  1  1
107108  1  0
 44111  1  1
 44 42  1  0
 44 45  1  0
 42 43  2  0
 42 41  1  0
 45 46  1  0
 41 33  1  0
 33 31  1  0
 33 34  1  6
 31 32  2  0
 31 30  1  0
 34 35  1  0
 35 36  2  0
 35 40  1  0
 36 37  1  0
 40 39  2  0
 37 38  2  0
 39 38  1  0
 30 26  1  0
 30 29  1  0
 26 24  1  0
 26 27  1  1
 24 25  2  0
 24 23  1  0
 27 28  1  0
 28 29  1  0
 23 18  1  0
 18 16  1  0
 18 19  1  6
 16 17  2  0
 19 20  1  0
 20 22  1  0
 20 21  2  0
  2  1  1  0
 85 86  1  0
M  CHG  1  68   1
M  END
$$$$
