
     RDKit          3D

116123  0  0  0  0  0  0  0  0999 V2000
   -7.7957   94.6257    6.2640 H   0  0  0  0  0  0  0  0  0  0  0  0
   -6.5720   94.8051    6.2750 N   0  0  0  0  0  0  0  0  0  0  0  0
   -6.4421   96.1229    6.3355 C   0  0  0  0  0  0  0  0  0  0  0  0
   -7.5081   96.9209    6.3592 N   0  0  0  0  0  0  0  0  0  0  0  0
   -5.2211   96.6269    6.5840 N   0  0  0  0  0  0  0  0  0  0  0  0
   -4.9022   98.0138    6.4387 C   0  0  0  0  0  0  0  0  0  0  0  0
   -5.2765   98.7256    7.7513 C   0  0  0  0  0  0  0  0  0  0  0  0
   -4.2493   99.7366    8.1340 C   0  0  0  0  0  0  0  0  0  0  0  0
   -4.7897  101.0509    8.7295 C   0  0  1  0  0  0  0  0  0  0  0  0
   -5.1000  102.0020    7.7147 N   0  0  0  0  0  0  0  0  0  0  0  0
   -5.9870  101.7950    6.7452 C   0  0  0  0  0  0  0  0  0  0  0  0
   -6.6025  100.6974    6.6504 O   0  0  0  0  0  0  0  0  0  0  0  0
   -6.2650  102.9212    5.7537 C   0  0  2  0  0  0  0  0  0  0  0  0
   -4.7777  103.8127    5.2863 O   0  0  0  0  0  0  0  0  0  0  0  0
   -5.5639  104.1572    6.0626 N   0  0  0  0  0  0  0  0  0  0  0  0
   -4.4477  104.9286    5.7715 C   0  0  0  0  0  0  0  0  0  0  0  0
   -3.4071  104.2920    5.4462 O   0  0  0  0  0  0  0  0  0  0  0  0
   -4.2700  106.3535    6.3142 C   0  0  2  0  0  0  0  0  0  0  0  0
   -3.0645  106.4500    7.2153 C   0  0  0  0  0  0  0  0  0  0  0  0
   -2.1927  105.1575    7.2510 C   0  0  0  0  0  0  0  0  0  0  0  0
   -0.8922  105.3485    7.3023 N   0  0  0  0  0  0  0  0  0  0  0  0
   -2.7203  104.0512    7.4861 O   0  0  0  0  0  0  0  0  0  0  0  0
   -5.4974  106.8163    7.0004 N   0  0  0  0  0  0  0  0  0  0  0  0
   -6.6515  106.9550    6.3524 C   0  0  0  0  0  0  0  0  0  0  0  0
   -6.7156  106.9187    5.0971 O   0  0  0  0  0  0  0  0  0  0  0  0
   -7.8887  107.4343    7.1247 C   0  0  2  0  0  0  0  0  0  0  0  0
   -8.0085  108.9674    7.1531 C   0  0  0  0  0  0  0  0  0  0  0  0
   -8.3793  109.3116    8.5063 C   0  0  0  0  0  0  0  0  0  0  0  0
   -7.7787  108.2431    9.4218 C   0  0  0  0  0  0  0  0  0  0  0  0
   -7.8372  107.0654    8.5438 N   0  0  0  0  0  0  0  0  0  0  0  0
   -7.8724  105.7983    8.9086 C   0  0  0  0  0  0  0  0  0  0  0  0
   -7.8702  104.8659    8.0346 O   0  0  0  0  0  0  0  0  0  0  0  0
   -7.7400  105.4489   10.3956 C   0  0  1  0  0  0  0  0  0  0  0  0
   -8.4016  106.5122   11.2751 C   0  0  0  0  0  0  0  0  0  0  0  0
   -7.4201  106.9765   12.4091 C   0  0  0  0  0  0  0  0  0  0  0  0
   -6.0879  107.2018   12.1365 C   0  0  0  0  0  0  0  0  0  0  0  0
   -5.1169  106.9529   13.1453 C   0  0  0  0  0  0  0  0  0  0  0  0
   -5.5017  106.7558   14.4516 C   0  0  0  0  0  0  0  0  0  0  0  0
   -6.8668  106.7179   14.7532 C   0  0  0  0  0  0  0  0  0  0  0  0
   -7.8225  106.7465   13.7195 C   0  0  0  0  0  0  0  0  0  0  0  0
   -8.2624  104.1259   10.6483 N   0  0  0  0  0  0  0  0  0  0  0  0
   -9.0123  103.8037   11.6850 C   0  0  0  0  0  0  0  0  0  0  0  0
   -8.8062  102.7980   12.3592 O   0  0  0  0  0  0  0  0  0  0  0  0
  -10.0593  101.8818   10.5323 C   0  0  1  0  0  0  0  0  0  0  0  0
  -10.5839  101.9456   10.9077 C   0  0  0  0  0  0  0  0  0  0  0  0
   -9.8079  100.8856   12.5753 S   0  0  0  0  0  0  0  0  0  0  0  0
   -9.3744   99.7044   10.9836 S   0  0  0  0  0  0  0  0  0  0  0  0
   -7.8236   98.7451   11.6531 C   0  0  0  0  0  0  0  0  0  0  0  0
   -7.3052   98.9643   10.5941 C   0  0  1  0  0  0  0  0  0  0  0  0
   -6.3263   99.4315    9.6624 N   0  0  0  0  0  0  0  0  0  0  0  0
   -6.0245  100.7391    9.5581 C   0  0  0  0  0  0  0  0  0  0  0  0
   -7.0658  101.5029    9.3619 O   0  0  0  0  0  0  0  0  0  0  0  0
   -5.7655   99.0413   10.6460 C   0  0  0  0  0  0  0  0  0  0  0  0
   -5.1488   98.2017   11.3462 O   0  0  0  0  0  0  0  0  0  0  0  0
   -5.1791  100.2452   10.3555 N   0  0  0  0  0  0  0  0  0  0  0  0
   -3.7652  100.4672   10.5904 C   0  0  2  0  0  0  0  0  0  0  0  0
   -2.9797   99.3021   10.0264 C   0  0  0  0  0  0  0  0  0  0  0  0
   -3.8760   98.1701    9.7636 C   0  0  0  0  0  0  0  0  0  0  0  0
   -4.2834   97.3232   10.7956 C   0  0  0  0  0  0  0  0  0  0  0  0
   -5.5024   96.6897   10.7847 C   0  0  0  0  0  0  0  0  0  0  0  0
   -6.3165   96.8046    9.6611 C   0  0  0  0  0  0  0  0  0  0  0  0
   -7.6906   96.5249    9.7247 O   0  0  0  0  0  0  0  0  0  0  0  0
   -5.7971   97.3555    8.5097 C   0  0  0  0  0  0  0  0  0  0  0  0
   -4.5823   98.0551    8.5587 C   0  0  0  0  0  0  0  0  0  0  0  0
   -3.5409  100.6536   12.0892 C   0  0  0  0  0  0  0  0  0  0  0  0
   -4.2752  101.4473   12.7180 O   0  0  0  0  0  0  0  0  0  0  0  0
   -2.4245  100.0988   12.5908 N   0  0  0  0  0  0  0  0  0  0  0  0
   -2.3520   99.7446   14.0038 C   0  0  1  0  0  0  0  0  0  0  0  0
   -1.5963   98.4444   14.1845 C   0  0  0  0  0  0  0  0  0  0  0  0
   -2.5529   97.2590   14.2309 C   0  0  0  0  0  0  0  0  0  0  0  0
   -1.8838   95.8953   14.0874 C   0  0  0  0  0  0  0  0  0  0  0  0
   -2.8241   94.8891   13.3606 C   0  0  0  0  0  0  0  0  0  0  0  0
   -2.3900   93.5166   13.6088 N   0  0  0  0  0  0  0  0  0  0  0  0
   -1.7450  100.8369   14.9096 C   0  0  0  0  0  0  0  0  0  0  0  0
   -0.9915  100.5249   15.8425 O   0  0  0  0  0  0  0  0  0  0  0  0
   -1.8815  102.1120   14.5505 N   0  0  0  0  0  0  0  0  0  0  0  0
   -1.5413  103.1983   15.4807 C   0  0  2  0  0  0  0  0  0  0  0  0
   -0.1322  103.0216   16.0306 C   0  0  0  0  0  0  0  0  0  0  0  0
    0.0473  101.7186   16.5970 O   0  0  0  0  0  0  0  0  0  0  0  0
   -2.5635  103.2447   16.6433 C   0  0  0  0  0  0  0  0  0  0  0  0
   -3.6818  102.6711   16.5167 O   0  0  0  0  0  0  0  0  0  0  0  0
   -2.3228  104.1382   17.5780 N   0  0  0  0  0  0  0  0  0  0  0  0
   -3.2917  104.4212   18.6687 C   0  0  1  0  0  0  0  0  0  0  0  0
   -2.4515  104.1931   20.0503 C   0  0  0  0  0  0  0  0  0  0  0  0
   -1.7174  105.5955   20.2839 C   0  0  0  0  0  0  0  0  0  0  0  0
   -1.3609  106.2902   19.0279 C   0  0  0  0  0  0  0  0  0  0  0  0
   -1.0938  107.7133   19.2096 N   0  0  0  0  0  0  0  0  0  0  0  0
   -0.9105  108.6169   18.2127 C   0  0  0  0  0  0  0  0  0  0  0  0
   -1.4437  109.8158   18.3042 N   0  0  0  0  0  0  0  0  0  0  0  0
   -0.0218  108.4085   17.1813 N   0  0  0  0  0  0  0  0  0  0  0  0
   -0.4521  108.9207   16.2292 H   0  0  0  0  0  0  0  0  0  0  0  0
   -3.6272  105.9163   18.6808 C   0  0  0  0  0  0  0  0  0  0  0  0
   -2.7868  106.7398   19.1100 O   0  0  0  0  0  0  0  0  0  0  0  0
   -4.8627  106.3025   18.3723 N   0  0  0  0  0  0  0  0  0  0  0  0
   -5.2854  107.7147   18.5573 C   0  0  0  0  0  0  0  0  0  0  0  0
   -6.5964  107.7742   17.8412 C   0  0  0  0  0  0  0  0  0  0  0  0
   -7.1708  106.4001   17.8947 C   0  0  0  0  0  0  0  0  0  0  0  0
   -5.9479  105.4487   17.8995 C   0  0  1  0  0  0  0  0  0  0  0  0
   -5.6828  104.8768   16.5061 C   0  0  0  0  0  0  0  0  0  0  0  0
   -4.6593  105.2886   15.8919 O   0  0  0  0  0  0  0  0  0  0  0  0
   -6.3317  103.7873   16.1328 N   0  0  0  0  0  0  0  0  0  0  0  0
   -7.2786  102.9749   16.9139 C   0  0  0  0  0  0  0  0  0  0  0  0
   -7.7752  101.9149   15.9806 C   0  0  0  0  0  0  0  0  0  0  0  0
   -6.7226  101.7592   14.9140 C   0  0  0  0  0  0  0  0  0  0  0  0
   -6.0906  103.1792   14.8010 C   0  0  1  0  0  0  0  0  0  0  0  0
   -6.7528  103.9362   13.6546 C   0  0  0  0  0  0  0  0  0  0  0  0
   -7.5794  104.8191   13.8906 O   0  0  0  0  0  0  0  0  0  0  0  0
   -6.1998  103.7598   12.4583 N   0  0  0  0  0  0  0  0  0  0  0  0
   -6.7978  104.2888   11.2257 C   0  0  1  0  0  0  0  0  0  0  0  0
   -5.7364  104.8980   10.3217 C   0  0  1  0  0  0  0  0  0  0  0  0
   -5.2617  106.2184   10.8094 C   0  0  0  0  0  0  0  0  0  0  0  0
   -4.5710  103.9407   10.1217 C   0  0  0  0  0  0  0  0  0  0  0  0
   -3.9340  103.4608   11.3926 C   0  0  0  0  0  0  0  0  0  0  0  0
   -7.5378  103.1620   10.5342 C   0  0  0  0  0  0  0  0  0  0  0  0
   -6.9770  101.9981   10.5779 O   0  0  0  0  0  0  0  0  0  0  0  0
   -8.8779  103.2023   10.5737 N   0  0  0  0  0  0  0  0  0  0  0  0
 15 13  1  0
 15 16  1  0
 15 14  1  0
 13 11  1  0
 13 14  1  6
 11 12  2  0
 11 10  1  0
 10  9  1  0
  9 51  1  0
  9  8  1  1
 51 52  2  0
 51 50  1  0
  8  7  1  0
  7  6  1  0
  6  5  1  0
  5  3  1  0
  3  2  2  0
  3  4  1  0
 49 50  1  6
 49 53  1  0
 49 48  1  0
 53 54  2  0
 53 55  1  0
 48 47  1  0
 47 46  1  0
 55 56  1  0
 56 65  1  0
 56 57  1  6
 65 66  2  0
 65 67  1  0
 57 58  1  0
 58 59  4  0
 58 64  4  0
 59 60  4  0
 64 63  4  0
 60 61  4  0
 63 61  4  0
 61 62  1  0
 67 68  1  0
 68 74  1  0
 68 69  1  6
 74 75  2  0
 74 76  1  0
 69 70  1  0
 70 71  1  0
 71 72  1  0
 72 73  1  0
 76 77  1  0
 77 80  1  0
 77 78  1  6
 80 81  2  0
 80 82  1  0
 78 79  1  0
 82 83  1  0
 83 92  1  0
 83 84  1  1
 92 93  2  0
 92 94  1  0
 84 85  1  0
 85 86  1  0
 86 87  1  0
 87 88  1  0
 88 90  2  0
 88 89  1  0
 94 98  1  0
 94 95  1  0
 98 99  1  0
 98 97  1  6
 99100  2  0
 99101  1  0
 97 96  1  0
 96 95  1  0
101105  1  0
101102  1  0
105106  1  0
105104  1  1
106107  2  0
106108  1  0
104103  1  0
103102  1  0
109108  1  1
109114  1  0
109110  1  0
114115  2  0
114116  1  0
110112  1  0
110111  1  1
112113  1  0
 44116  1  1
 44 42  1  0
 44 45  1  0
 42 43  2  0
 42 41  1  0
 45 46  1  0
 41 33  1  0
 33 31  1  0
 33 34  1  6
 31 32  2  0
 31 30  1  0
 34 35  1  0
 35 36  4  0
 35 40  4  0
 36 37  4  0
 40 39  4  0
 37 38  4  0
 39 38  4  0
 30 26  1  0
 30 29  1  0
 26 24  1  0
 26 27  1  1
 24 25  2  0
 24 23  1  0
 27 28  1  0
 28 29  1  0
 23 18  1  0
 18 16  1  0
 18 19  1  1
 16 17  2  0
 19 20  1  0
 20 22  2  0
 20 21  1  0
  2  1  1  0
 90 91  1  0
M  CHG  1  73   1
M  END
$$$$
