
     RDKit          3D

112119  0  0  0  0  0  0  0  0999 V2000
   53.9332   11.6928  109.8991 H   0  0  0  0  0  0  0  0  0  0  0  0
   53.0630   11.9140  110.3830 N   0  0  0  0  0  0  0  0  0  0  0  0
   53.0610   12.0880  111.7010 C   0  0  0  0  0  0  0  0  0  0  0  0
   51.9250   12.3670  112.3340 N   0  0  0  0  0  0  0  0  0  0  0  0
   54.1920   11.9740  112.3890 N   0  0  0  0  0  0  0  0  0  0  0  0
   55.4920   11.6710  111.7950 C   0  0  0  0  0  0  0  0  0  0  0  0
   56.5680   12.6500  112.2550 C   0  0  0  0  0  0  0  0  0  0  0  0
   56.1520   14.0730  111.9350 C   0  0  0  0  0  0  0  0  0  0  0  0
   57.2880   15.0950  111.8570 C   0  0  2  0  0  0  0  0  0  0  0  0
   57.9200   15.2610  113.1620 N   0  0  0  0  0  0  0  0  0  0  0  0
   59.0120   16.0100  113.3000 C   0  0  0  0  0  0  0  0  0  0  0  0
   59.5540   16.5880  112.3590 O   0  0  0  0  0  0  0  0  0  0  0  0
   59.5800   16.1220  114.7020 C   0  0  2  0  0  0  0  0  0  0  0  0
   58.7340   15.5470  115.4970 O   0  0  0  0  0  0  0  0  0  0  0  0
   58.6280   15.7660  115.7360 N   0  0  0  0  0  0  0  0  0  0  0  0
   58.9870   14.5890  116.2320 C   0  0  0  0  0  0  0  0  0  0  0  0
   59.9020   13.8230  115.9200 O   0  0  0  0  0  0  0  0  0  0  0  0
   58.1780   14.3550  117.5110 C   0  0  2  0  0  0  0  0  0  0  0  0
   57.4990   12.9810  117.4650 C   0  0  0  0  0  0  0  0  0  0  0  0
   56.9520   12.6370  116.0860 C   0  0  0  0  0  0  0  0  0  0  0  0
   57.1000   11.4680  115.6720 O   0  0  0  0  0  0  0  0  0  0  0  0
   56.3790   13.5250  115.4130 O   0  0  0  0  0  0  0  0  0  0  0  0
   57.1940   15.4110  117.7410 N   0  0  0  0  0  0  0  0  0  0  0  0
   57.4900   16.5010  118.4470 C   0  0  0  0  0  0  0  0  0  0  0  0
   58.6220   16.7050  118.9040 O   0  0  0  0  0  0  0  0  0  0  0  0
   56.4000   17.5290  118.6960 C   0  0  2  0  0  0  0  0  0  0  0  0
   55.7070   17.3020  120.0490 C   0  0  0  0  0  0  0  0  0  0  0  0
   54.2710   17.6540  119.8080 C   0  0  0  0  0  0  0  0  0  0  0  0
   53.9900   17.2730  118.3860 C   0  0  0  0  0  0  0  0  0  0  0  0
   55.2900   17.4750  117.7300 N   0  0  0  0  0  0  0  0  0  0  0  0
   55.5270   17.6690  116.4300 C   0  0  0  0  0  0  0  0  0  0  0  0
   56.6720   17.8350  115.9980 O   0  0  0  0  0  0  0  0  0  0  0  0
   54.3300   17.6980  115.4960 C   0  0  2  0  0  0  0  0  0  0  0  0
   53.8980   16.2680  115.1350 C   0  0  0  0  0  0  0  0  0  0  0  0
   52.6180   16.2170  114.3600 C   0  0  0  0  0  0  0  0  0  0  0  0
   52.6100   16.4460  112.9930 C   0  0  0  0  0  0  0  0  0  0  0  0
   51.4290   16.4210  112.2810 C   0  0  0  0  0  0  0  0  0  0  0  0
   50.2370   16.1630  112.9300 C   0  0  0  0  0  0  0  0  0  0  0  0
   50.2310   15.9390  114.2800 C   0  0  0  0  0  0  0  0  0  0  0  0
   51.4160   15.9720  114.9970 C   0  0  0  0  0  0  0  0  0  0  0  0
   54.6470   18.4290  114.2800 N   0  0  0  0  0  0  0  0  0  0  0  0
   53.9040   19.4210  113.8130 C   0  0  0  0  0  0  0  0  0  0  0  0
   52.9370   19.8900  114.4210 O   0  0  0  0  0  0  0  0  0  0  0  0
   54.3440   19.9740  112.4660 C   0  0  2  0  0  0  0  0  0  0  0  0
   55.5210   20.9420  112.6410 C   0  0  0  0  0  0  0  0  0  0  0  0
   56.3100   21.3790  111.0710 S   0  0  0  0  0  0  0  0  0  0  0  0
   57.6910   19.9000  110.7540 S   0  0  0  0  0  0  0  0  0  0  0  0
   57.1850   19.0380  109.2600 C   0  0  0  0  0  0  0  0  0  0  0  0
   56.2410   17.8550  109.4930 C   0  0  2  0  0  0  0  0  0  0  0  0
   56.9190   16.7260  110.1110 N   0  0  0  0  0  0  0  0  0  0  0  0
   56.6960   16.4110  111.3800 C   0  0  0  0  0  0  0  0  0  0  0  0
   56.0280   17.1250  112.1310 O   0  0  0  0  0  0  0  0  0  0  0  0
   55.6530   17.3960  108.1720 C   0  0  0  0  0  0  0  0  0  0  0  0
   56.3590   16.8110  107.3430 O   0  0  0  0  0  0  0  0  0  0  0  0
   54.3590   17.6350  107.9990 N   0  0  0  0  0  0  0  0  0  0  0  0
   53.7260   17.4150  106.7070 C   0  0  1  0  0  0  0  0  0  0  0  0
   52.2070   17.3340  106.8840 C   0  0  0  0  0  0  0  0  0  0  0  0
   51.7740   16.0440  107.5620 C   0  0  0  0  0  0  0  0  0  0  0  0
   51.7350   15.9440  108.9450 C   0  0  0  0  0  0  0  0  0  0  0  0
   51.3640   14.7660  109.5700 C   0  0  0  0  0  0  0  0  0  0  0  0
   51.0210   13.6670  108.8250 C   0  0  0  0  0  0  0  0  0  0  0  0
   50.6580   12.5120  109.4890 O   0  0  0  0  0  0  0  0  0  0  0  0
   51.0570   13.7310  107.4420 C   0  0  0  0  0  0  0  0  0  0  0  0
   51.4320   14.9190  106.8210 C   0  0  0  0  0  0  0  0  0  0  0  0
   54.1240   18.5520  105.7790 C   0  0  0  0  0  0  0  0  0  0  0  0
   54.2350   19.7040  106.2010 O   0  0  0  0  0  0  0  0  0  0  0  0
   54.3530   18.2180  104.5050 N   0  0  0  0  0  0  0  0  0  0  0  0
   55.0260   19.1120  103.5520 C   0  0  1  0  0  0  0  0  0  0  0  0
   55.9040   18.2870  102.6110 C   0  0  0  0  0  0  0  0  0  0  0  0
   57.0720   17.6430  103.3670 C   0  0  0  0  0  0  0  0  0  0  0  0
   57.8420   16.6300  102.5350 C   0  0  0  0  0  0  0  0  0  0  0  0
   59.0700   16.1250  103.3110 C   0  0  0  0  0  0  0  0  0  0  0  0
   59.7560   15.0450  102.5460 N   0  0  0  0  0  0  0  0  0  0  0  0
   54.0880   20.0480  102.7870 C   0  0  0  0  0  0  0  0  0  0  0  0
   54.2940   20.3060  101.5970 O   0  0  0  0  0  0  0  0  0  0  0  0
   53.0470   20.5620  103.4370 N   0  0  0  0  0  0  0  0  0  0  0  0
   52.2070   21.6160  102.8920 C   0  0  1  0  0  0  0  0  0  0  0  0
   50.8210   21.5530  103.5350 C   0  0  0  0  0  0  0  0  0  0  0  0
   50.9390   21.4710  104.9580 O   0  0  0  0  0  0  0  0  0  0  0  0
   52.8290   22.9900  103.1540 C   0  0  0  0  0  0  0  0  0  0  0  0
   53.8400   23.1240  103.8550 O   0  0  0  0  0  0  0  0  0  0  0  0
   52.2110   24.0260  102.5860 N   0  0  0  0  0  0  0  0  0  0  0  0
   52.5070   25.4160  102.9100 C   0  0  1  0  0  0  0  0  0  0  0  0
   52.9090   26.2400  101.6780 C   0  0  1  0  0  0  0  0  0  0  0  0
   53.0630   27.7140  102.0540 C   0  0  0  0  0  0  0  0  0  0  0  0
   54.2190   25.7250  101.0730 C   0  0  0  0  0  0  0  0  0  0  0  0
   54.5610   26.3850   99.7520 C   0  0  0  0  0  0  0  0  0  0  0  0
   51.2640   26.0150  103.5700 C   0  0  0  0  0  0  0  0  0  0  0  0
   50.2300   26.1650  102.9060 O   0  0  0  0  0  0  0  0  0  0  0  0
   51.3110   26.3760  104.8630 N   0  0  0  0  0  0  0  0  0  0  0  0
   50.1880   27.0840  105.5020 C   0  0  0  0  0  0  0  0  0  0  0  0
   50.5780   27.1150  106.9610 C   0  0  0  0  0  0  0  0  0  0  0  0
   52.0630   27.0670  106.9780 C   0  0  0  0  0  0  0  0  0  0  0  0
   52.4300   26.1710  105.7870 C   0  0  1  0  0  0  0  0  0  0  0  0
   52.5120   24.7090  106.2180 C   0  0  0  0  0  0  0  0  0  0  0  0
   51.5180   23.9850  106.0890 O   0  0  0  0  0  0  0  0  0  0  0  0
   53.6790   24.2700  106.6820 N   0  0  0  0  0  0  0  0  0  0  0  0
   54.9550   25.0000  106.7860 C   0  0  0  0  0  0  0  0  0  0  0  0
   55.7310   24.1690  107.7760 C   0  0  0  0  0  0  0  0  0  0  0  0
   55.2830   22.7580  107.5010 C   0  0  0  0  0  0  0  0  0  0  0  0
   53.7920   22.8950  107.1720 C   0  0  1  0  0  0  0  0  0  0  0  0
   52.9430   22.7020  108.4160 C   0  0  0  0  0  0  0  0  0  0  0  0
   52.6830   23.6380  109.1750 O   0  0  0  0  0  0  0  0  0  0  0  0
   52.4880   21.4680  108.6030 N   0  0  0  0  0  0  0  0  0  0  0  0
   51.8250   21.0410  109.8300 C   0  0  1  0  0  0  0  0  0  0  0  0
   50.5230   20.2810  109.5250 C   0  0  1  0  0  0  0  0  0  0  0  0
   49.8640   19.7900  110.8090 C   0  0  0  0  0  0  0  0  0  0  0  0
   49.5820   21.1650  108.6920 C   0  0  0  0  0  0  0  0  0  0  0  0
   48.5350   20.4060  107.8950 C   0  0  0  0  0  0  0  0  0  0  0  0
   52.8240   20.1660  110.5720 C   0  0  0  0  0  0  0  0  0  0  0  0
   53.2320   19.1150  110.0650 O   0  0  0  0  0  0  0  0  0  0  0  0
   53.2360   20.6030  111.7620 N   0  0  0  0  0  0  0  0  0  0  0  0
 15 13  1  0
 15 16  1  0
 15 14  1  0
 13 11  1  0
 13 14  1  6
 11 12  2  0
 11 10  1  0
 10  9  1  0
  9 51  1  0
  9  8  1  1
 51 52  2  0
 51 50  1  0
  8  7  1  0
  7  6  1  0
  6  5  1  0
  5  3  1  0
  3  2  2  0
  3  4  1  0
 49 50  1  6
 49 53  1  0
 49 48  1  0
 53 54  2  0
 53 55  1  0
 48 47  1  0
 47 46  1  0
 55 56  1  0
 56 65  1  0
 56 57  1  1
 65 66  2  0
 65 67  1  0
 57 58  1  0
 58 59  2  0
 58 64  1  0
 59 60  1  0
 64 63  2  0
 60 61  2  0
 63 61  1  0
 61 62  1  0
 67 68  1  0
 68 74  1  0
 68 69  1  6
 74 75  2  0
 74 76  1  0
 69 70  1  0
 70 71  1  0
 71 72  1  0
 72 73  1  0
 76 77  1  0
 77 80  1  0
 77 78  1  1
 80 81  2  0
 80 82  1  0
 78 79  1  0
 83 82  1  6
 83 88  1  0
 83 84  1  0
 88 89  2  0
 88 90  1  0
 84 86  1  0
 84 85  1  1
 86 87  1  0
 90 94  1  0
 90 91  1  0
 94 95  1  0
 94 93  1  1
 95 96  2  0
 95 97  1  0
 93 92  1  0
 92 91  1  0
 97101  1  0
 97 98  1  0
101102  1  0
101100  1  1
102103  2  0
102104  1  0
100 99  1  0
 99 98  1  0
105104  1  6
105110  1  0
105106  1  0
110111  2  0
110112  1  0
106108  1  0
106107  1  1
108109  1  0
 44112  1  1
 44 42  1  0
 44 45  1  0
 42 43  2  0
 42 41  1  0
 45 46  1  0
 41 33  1  0
 33 31  1  0
 33 34  1  6
 31 32  2  0
 31 30  1  0
 34 35  1  0
 35 36  2  0
 35 40  1  0
 36 37  1  0
 40 39  2  0
 37 38  2  0
 39 38  1  0
 30 26  1  0
 30 29  1  0
 26 24  1  0
 26 27  1  1
 24 25  2  0
 24 23  1  0
 27 28  1  0
 28 29  1  0
 23 18  1  0
 18 16  1  0
 18 19  1  6
 16 17  2  0
 19 20  1  0
 20 22  1  0
 20 21  2  0
  2  1  1  0
M  CHG  1  73   1
M  END
$$$$
