
     RDKit          3D

 21 24  0  0  0  0  0  0  0  0999 V2000
   31.5780   33.1850   18.6740 F   0  0  0  0  0  0  0  0  0  0  0  0
   31.9240   32.1490   19.4390 C   0  0  0  0  0  0  0  0  0  0  0  0
   31.8490   30.8630   18.9210 C   0  0  0  0  0  0  0  0  0  0  0  0
   32.2100   29.7820   19.7230 C   0  0  0  0  0  0  0  0  0  0  0  0
   32.6470   30.0140   21.0400 C   0  0  0  0  0  0  0  0  0  0  0  0
   33.0280   28.8510   21.9200 C   0  0  0  0  0  0  0  0  0  0  0  0
   34.2630   29.0670   22.6410 N   0  0  0  0  0  0  0  0  0  0  0  0
   35.5100   28.7490   22.1350 C   0  0  0  0  0  0  0  0  0  0  0  0
   35.8050   28.2180   20.8760 C   0  0  0  0  0  0  0  0  0  0  0  0
   37.1480   27.9900   20.5980 C   0  0  0  0  0  0  0  0  0  0  0  0
   38.1210   28.2820   21.5410 C   0  0  0  0  0  0  0  0  0  0  0  0
   37.8120   28.8130   22.7970 C   0  0  0  0  0  0  0  0  0  0  0  0
   36.4600   29.0410   23.0670 C   0  0  0  0  0  0  0  0  0  0  0  0
   35.8320   29.5540   24.2040 N   0  0  0  0  0  0  0  0  0  0  0  0
   36.4880   29.9800   25.4260 C   0  0  0  0  0  0  0  0  0  0  0  0
   35.5440   30.8470   26.2670 C   0  0  0  0  0  0  0  0  0  0  0  0
   34.0590   30.4860   26.1970 C   0  0  0  0  0  0  0  0  0  0  0  0
   33.5810   30.0150   24.9060 N   0  0  0  0  0  0  0  0  0  0  0  0
   34.4330   29.6030   24.0490 C   0  0  0  0  0  0  0  0  0  0  0  0
   32.7040   31.3120   21.5380 C   0  0  0  0  0  0  0  0  0  0  0  0
   32.3430   32.3890   20.7380 C   0  0  0  0  0  0  0  0  0  0  0  0
  2  3  2  0
  2  1  1  0
 21  2  1  0
  9 10  2  0
  8  9  1  0
  5 20  1  0
 20 21  2  0
  3  4  1  0
 10 11  1  0
 12 11  2  0
  7 19  1  0
 19 14  1  0
 19 18  1  0
  7  8  1  0
  6  7  1  0
 13 14  1  0
 14 15  1  0
  8 13  2  0
 13 12  1  0
 18 17  1  0
  6  5  1  0
 15 16  1  0
  5  4  2  0
 17 16  1  0
M  END
$$$$
