
     RDKit          3D

 74 76  0  0  0  0  0  0  0  0999 V2000
    3.7920  -34.8430    9.4270 C   0  0  0  0  0  0  0  0  0  0  0  0
    2.8360  -34.2920   10.8500 S   0  0  0  0  0  0  0  0  0  0  0  0
    2.3460  -35.8450   11.6450 C   0  0  0  0  0  0  0  0  0  0  0  0
    3.0630  -36.1950   12.9490 C   0  0  0  0  0  0  0  0  0  0  0  0
    4.4730  -35.5970   13.1140 C   0  0  2  0  0  0  0  0  0  0  0  0
    5.3010  -35.8080   11.8960 N   0  0  0  0  0  4  0  0  0  0  0  0
    5.1970  -36.2140   14.2980 C   0  0  0  0  0  0  0  0  0  0  0  0
    4.8050  -37.2670   14.8140 O   0  0  0  0  0  0  0  0  0  0  0  0
    6.2770  -35.5460   14.7010 N   0  0  0  0  0  0  0  0  0  0  0  0
    7.0510  -35.9410   15.8770 C   0  0  1  0  0  0  0  0  0  0  0  0
    8.4960  -35.3850   15.7800 C   0  0  0  0  0  0  0  0  0  0  0  0
    9.2840  -35.4080   17.0670 C   0  0  0  0  0  0  0  0  0  0  0  0
    8.8990  -34.8890   18.2320 C   0  0  0  0  0  0  0  0  0  0  0  0
    9.8380  -35.0850   19.1950 N   0  0  0  0  0  0  0  0  0  0  0  0
   10.9110  -35.7170   18.6480 C   0  0  0  0  0  0  0  0  0  0  0  0
   12.1190  -36.1210   19.2280 C   0  0  0  0  0  0  0  0  0  0  0  0
   13.0180  -36.7590   18.4220 C   0  0  0  0  0  0  0  0  0  0  0  0
   12.7400  -37.0010   17.0680 C   0  0  0  0  0  0  0  0  0  0  0  0
   11.5310  -36.6010   16.4940 C   0  0  0  0  0  0  0  0  0  0  0  0
   10.5970  -35.9470   17.2950 C   0  0  0  0  0  0  0  0  0  0  0  0
    6.2670  -35.4070   17.0900 C   0  0  0  0  0  0  0  0  0  0  0  0
    5.5660  -34.4000   16.9710 O   0  0  0  0  0  0  0  0  0  0  0  0
    6.3860  -36.0760   18.2410 N   0  0  0  0  0  0  0  0  0  0  0  0
    5.7030  -35.6500   19.4900 C   0  0  1  0  0  0  0  0  0  0  0  0
    5.1440  -36.8820   20.2180 C   0  0  0  0  0  0  0  0  0  0  0  0
    3.8150  -37.4540   19.7010 C   0  0  1  0  0  0  0  0  0  0  0  0
    2.6330  -36.8530   20.4490 C   0  0  0  0  0  0  0  0  0  0  0  0
    3.6420  -37.2930   18.1920 C   0  0  0  0  0  0  0  0  0  0  0  0
    6.5600  -34.7920   20.4450 C   0  0  0  0  0  0  0  0  0  0  0  0
    6.9110  -35.2230   21.5490 O   0  0  0  0  0  0  0  0  0  0  0  0
    6.8700  -33.5680   20.0080 N   0  0  0  0  0  0  0  0  0  0  0  0
    7.6620  -32.6070   20.7970 C   0  0  1  0  0  0  0  0  0  0  0  0
    9.1080  -32.4530   20.2880 C   0  0  0  0  0  0  0  0  0  0  0  0
   10.2770  -32.3710   21.3000 C   0  0  1  0  0  0  0  0  0  0  0  0
    9.9070  -31.7600   22.6450 C   0  0  0  0  0  0  0  0  0  0  0  0
   10.9490  -33.6910   21.6090 C   0  0  0  0  0  0  0  0  0  0  0  0
    6.9910  -31.2500   20.7360 C   0  0  0  0  0  0  0  0  0  0  0  0
    5.9150  -31.1150   20.1510 O   0  0  0  0  0  0  0  0  0  0  0  0
    7.6390  -30.2470   21.3390 N   0  0  0  0  0  0  0  0  0  0  0  0
    7.1320  -28.8690   21.3610 C   0  0  1  0  0  0  0  0  0  0  0  0
    5.6010  -28.8680   21.3610 C   0  0  0  0  0  0  0  0  0  0  0  0
    4.9240  -27.5630   20.9350 C   0  0  1  0  0  0  0  0  0  0  0  0
    5.3820  -26.4080   21.8130 C   0  0  0  0  0  0  0  0  0  0  0  0
    5.2000  -27.2690   19.4690 C   0  0  0  0  0  0  0  0  0  0  0  0
    7.6570  -27.9940   22.5200 C   0  0  0  0  0  0  0  0  0  0  0  0
    7.6400  -28.4090   23.6790 O   0  0  0  0  0  0  0  0  0  0  0  0
    8.1110  -26.7830   22.1880 N   0  0  0  0  0  0  0  0  0  0  0  0
    8.6220  -25.7980   23.1700 C   0  0  1  0  0  0  0  0  0  0  0  0
    7.6560  -25.6280   24.3620 C   0  0  0  0  0  0  0  0  0  0  0  0
    7.3000  -26.8900   25.1980 C   0  0  1  0  0  0  0  0  0  0  0  0
    7.2380  -26.6610   26.6950 C   0  0  0  0  0  0  0  0  0  0  0  0
    6.0430  -27.5570   24.7400 C   0  0  0  0  0  0  0  0  0  0  0  0
   10.0530  -26.0390   23.6710 C   0  0  0  0  0  0  0  0  0  0  0  0
   11.0090  -25.5430   23.0610 O   0  0  0  0  0  0  0  0  0  0  0  0
   10.1710  -26.7560   24.7970 N   0  0  0  0  0  0  0  0  0  0  0  0
   11.4060  -27.1280   25.4530 C   0  0  1  0  0  0  0  0  0  0  0  0
   12.3240  -27.9040   24.4830 C   0  0  0  0  0  0  0  0  0  0  0  0
   13.5860  -28.4350   25.1040 C   0  0  0  0  0  0  0  0  0  0  0  0
   13.8940  -28.2040   26.4420 C   0  0  0  0  0  0  0  0  0  0  0  0
   15.0640  -28.6630   26.9710 C   0  0  0  0  0  0  0  0  0  0  0  0
   15.9750  -29.3460   26.2010 C   0  0  0  0  0  0  0  0  0  0  0  0
   15.7020  -29.5730   24.8660 C   0  0  0  0  0  0  0  0  0  0  0  0
   14.5160  -29.1100   24.3200 C   0  0  0  0  0  0  0  0  0  0  0  0
   12.0400  -25.8840   26.1080 C   0  0  0  0  0  0  0  0  0  0  0  0
   11.5060  -25.3680   27.0990 O   0  0  0  0  0  0  0  0  0  0  0  0
   13.1670  -25.4120   25.5670 N   0  0  0  0  0  0  0  0  0  0  0  0
   13.8780  -24.2690   26.1150 C   0  0  1  0  0  0  0  0  0  0  0  0
   15.3300  -24.1970   25.6020 C   0  0  0  0  0  0  0  0  0  0  0  0
   16.3280  -25.3290   25.8440 C   0  0  1  0  0  0  0  0  0  0  0  0
   16.0930  -26.4580   24.8800 C   0  0  0  0  0  0  0  0  0  0  0  0
   17.7340  -24.8680   25.6170 C   0  0  0  0  0  0  0  0  0  0  0  0
   13.1330  -23.0190   25.6470 C   0  0  0  0  0  0  0  0  0  0  0  0
   13.7340  -21.9550   25.4700 O   0  0  0  0  0  0  0  0  0  0  0  0
   11.9190  -23.0230   25.3900 O   0  0  0  0  0  1  0  0  0  0  0  0
  5  6  1  6
  5  7  1  0
  5  4  1  0
  7  8  2  0
  7  9  1  0
  4  3  1  0
  3  2  1  0
  2  1  1  0
  9 10  1  0
 10 21  1  0
 10 11  1  6
 21 22  2  0
 21 23  1  0
 11 12  1  0
 12 13  2  0
 12 20  1  0
 13 14  1  0
 20 15  2  0
 20 19  1  0
 14 15  1  0
 15 16  1  0
 19 18  2  0
 16 17  2  0
 18 17  1  0
 23 24  1  0
 24 29  1  0
 24 25  1  1
 29 30  2  0
 29 31  1  0
 25 26  1  0
 26 27  1  1
 26 28  1  0
 31 32  1  0
 32 37  1  0
 32 33  1  6
 37 38  2  0
 37 39  1  0
 33 34  1  0
 34 35  1  1
 34 36  1  0
 39 40  1  0
 40 45  1  0
 40 41  1  1
 45 46  2  0
 45 47  1  0
 41 42  1  0
 42 43  1  1
 42 44  1  0
 47 48  1  0
 48 53  1  0
 48 49  1  1
 53 54  2  0
 53 55  1  0
 49 50  1  0
 50 51  1  1
 50 52  1  0
 55 56  1  0
 56 64  1  0
 56 57  1  6
 64 65  2  0
 64 66  1  0
 57 58  1  0
 58 59  2  0
 58 63  1  0
 59 60  1  0
 63 62  2  0
 60 61  2  0
 62 61  1  0
 66 67  1  0
 67 72  1  0
 67 68  1  6
 72 74  1  0
 72 73  2  0
 68 69  1  0
 69 70  1  6
 69 71  1  0
M  CHG  2   6   1  74  -1
M  END
$$$$
