
     RDKit          3D

 74 76  0  0  0  0  0  0  0  0999 V2000
   21.1269  -11.4574   28.2057 C   0  0  0  0  0  0  0  0  0  0  0  0
   20.4440  -13.1199   28.2801 S   0  0  0  0  0  0  0  0  0  0  0  0
   18.6874  -12.8286   28.1667 C   0  0  0  0  0  0  0  0  0  0  0  0
   17.8215  -13.9987   28.4515 C   0  0  0  0  0  0  0  0  0  0  0  0
   17.5699  -14.3023   29.9775 C   0  0  2  0  0  0  0  0  0  0  0  0
   18.6822  -13.6985   30.8018 N   0  0  0  0  0  4  0  0  0  0  0  0
   17.5395  -15.7826   30.2494 C   0  0  0  0  0  0  0  0  0  0  0  0
   18.0506  -16.2610   31.2717 O   0  0  0  0  0  0  0  0  0  0  0  0
   16.9107  -16.5199   29.3008 N   0  0  0  0  0  0  0  0  0  0  0  0
   16.4393  -17.8918   29.5583 C   0  0  1  0  0  0  0  0  0  0  0  0
   15.9887  -18.5430   28.2233 C   0  0  0  0  0  0  0  0  0  0  0  0
   15.7768  -20.0414   28.3263 C   0  0  0  0  0  0  0  0  0  0  0  0
   15.7488  -20.7732   29.4047 C   0  0  0  0  0  0  0  0  0  0  0  0
   15.7286  -22.1133   29.1160 N   0  0  0  0  0  0  0  0  0  0  0  0
   15.7245  -22.2560   27.7738 C   0  0  0  0  0  0  0  0  0  0  0  0
   15.7022  -23.4424   26.9994 C   0  0  0  0  0  0  0  0  0  0  0  0
   15.6919  -23.2786   25.6072 C   0  0  0  0  0  0  0  0  0  0  0  0
   15.6882  -22.0211   25.0646 C   0  0  0  0  0  0  0  0  0  0  0  0
   15.7174  -20.8612   25.8275 C   0  0  0  0  0  0  0  0  0  0  0  0
   15.7363  -20.9786   27.2241 C   0  0  0  0  0  0  0  0  0  0  0  0
   17.6323  -18.6005   30.2485 C   0  0  0  0  0  0  0  0  0  0  0  0
   17.8015  -19.8094   30.0811 O   0  0  0  0  0  0  0  0  0  0  0  0
   18.3146  -17.9121   31.1956 N   0  0  0  0  0  0  0  0  0  0  0  0
   17.6251  -17.0721   32.1724 C   0  0  1  0  0  0  0  0  0  0  0  0
   16.2207  -17.6613   32.5368 C   0  0  0  0  0  0  0  0  0  0  0  0
   14.9956  -16.8250   32.2715 C   0  0  1  0  0  0  0  0  0  0  0  0
   14.7121  -15.9043   33.4231 C   0  0  0  0  0  0  0  0  0  0  0  0
   15.0531  -15.9868   30.9418 C   0  0  0  0  0  0  0  0  0  0  0  0
   18.4072  -16.7864   33.4639 C   0  0  0  0  0  0  0  0  0  0  0  0
   19.5590  -17.1636   33.5681 O   0  0  0  0  0  0  0  0  0  0  0  0
   17.7004  -16.2143   34.4566 N   0  0  0  0  0  0  0  0  0  0  0  0
   16.2300  -16.2435   34.5250 C   0  0  2  0  0  0  0  0  0  0  0  0
   15.6471  -15.8368   35.9091 C   0  0  0  0  0  0  0  0  0  0  0  0
   14.2162  -16.2293   36.2947 C   0  0  2  0  0  0  0  0  0  0  0  0
   13.5493  -15.2931   37.2532 C   0  0  0  0  0  0  0  0  0  0  0  0
   14.0392  -17.6245   36.9342 C   0  0  0  0  0  0  0  0  0  0  0  0
   15.7513  -17.6573   34.2101 C   0  0  0  0  0  0  0  0  0  0  0  0
   16.4819  -18.6306   34.4893 O   0  0  0  0  0  0  0  0  0  0  0  0
   14.4864  -17.7874   33.8464 N   0  0  0  0  0  0  0  0  0  0  0  0
   13.4996  -18.5858   34.6176 C   0  0  2  0  0  0  0  0  0  0  0  0
   13.9160  -18.6001   36.0871 C   0  0  0  0  0  0  0  0  0  0  0  0
   14.6931  -19.8165   36.5974 C   0  0  1  0  0  0  0  0  0  0  0  0
   16.1741  -19.5020   36.5431 C   0  0  0  0  0  0  0  0  0  0  0  0
   14.2561  -20.2355   37.9929 C   0  0  0  0  0  0  0  0  0  0  0  0
   13.3205  -20.0531   34.1428 C   0  0  0  0  0  0  0  0  0  0  0  0
   13.4337  -20.9598   34.9298 O   0  0  0  0  0  0  0  0  0  0  0  0
   13.2946  -20.2010   32.8191 N   0  0  0  0  0  0  0  0  0  0  0  0
   12.7784  -21.4252   32.1270 C   0  0  2  0  0  0  0  0  0  0  0  0
   11.4170  -21.8450   32.7666 C   0  0  0  0  0  0  0  0  0  0  0  0
   11.2418  -21.6854   34.3248 C   0  0  1  0  0  0  0  0  0  0  0  0
    9.9869  -22.2811   34.9477 C   0  0  0  0  0  0  0  0  0  0  0  0
   12.4436  -22.0454   35.1059 C   0  0  0  0  0  0  0  0  0  0  0  0
   13.6876  -22.6420   32.0351 C   0  0  0  0  0  0  0  0  0  0  0  0
   14.0079  -23.2322   33.0597 O   0  0  0  0  0  0  0  0  0  0  0  0
   13.8975  -23.1053   30.7804 N   0  0  0  0  0  0  0  0  0  0  0  0
   12.8767  -23.6299   29.8870 C   0  0  2  0  0  0  0  0  0  0  0  0
   11.5066  -23.4604   30.5673 C   0  0  0  0  0  0  0  0  0  0  0  0
   10.5470  -22.5459   29.8017 C   0  0  0  0  0  0  0  0  0  0  0  0
   10.9493  -21.2276   29.4345 C   0  0  0  0  0  0  0  0  0  0  0  0
   10.6545  -20.7448   28.2031 C   0  0  0  0  0  0  0  0  0  0  0  0
    9.8061  -21.4379   27.3591 C   0  0  0  0  0  0  0  0  0  0  0  0
    9.2065  -22.6132   27.7627 C   0  0  0  0  0  0  0  0  0  0  0  0
    9.4892  -23.1075   29.0139 C   0  0  0  0  0  0  0  0  0  0  0  0
   13.2212  -25.0442   29.4550 C   0  0  0  0  0  0  0  0  0  0  0  0
   12.6975  -26.0173   30.0147 O   0  0  0  0  0  0  0  0  0  0  0  0
   14.0141  -25.1630   28.3823 N   0  0  0  0  0  0  0  0  0  0  0  0
   13.4582  -25.6989   27.1314 C   0  0  2  0  0  0  0  0  0  0  0  0
   11.9841  -25.2905   26.9058 C   0  0  0  0  0  0  0  0  0  0  0  0
   10.9098  -25.7899   27.8843 C   0  0  2  0  0  0  0  0  0  0  0  0
   10.3677  -27.1276   27.4308 C   0  0  0  0  0  0  0  0  0  0  0  0
    9.7226  -24.8688   27.8521 C   0  0  0  0  0  0  0  0  0  0  0  0
   13.5916  -27.1455   27.1101 C   0  0  0  0  0  0  0  0  0  0  0  0
   12.5783  -27.9571   27.0609 O   0  0  0  0  0  0  0  0  0  0  0  0
   14.6945  -27.7710   27.0925 O   0  0  0  0  0  1  0  0  0  0  0  0
  5  6  1  1
  5  7  1  0
  5  4  1  0
  7  8  2  0
  7  9  1  0
  4  3  1  0
  3  2  1  0
  2  1  1  0
  9 10  1  0
 10 21  1  0
 10 11  1  6
 21 22  2  0
 21 23  1  0
 11 12  1  0
 12 13  4  0
 12 20  4  0
 13 14  4  0
 20 15  4  0
 20 19  4  0
 14 15  4  0
 15 16  4  0
 19 18  4  0
 16 17  4  0
 18 17  4  0
 23 24  1  0
 24 29  1  0
 24 25  1  1
 29 30  2  0
 29 31  1  0
 25 26  1  0
 26 27  1  1
 26 28  1  0
 31 32  1  0
 32 37  1  0
 32 33  1  6
 37 38  2  0
 37 39  1  0
 33 34  1  0
 34 35  1  6
 34 36  1  0
 39 40  1  0
 40 45  1  0
 40 41  1  6
 45 46  2  0
 45 47  1  0
 41 42  1  0
 42 43  1  1
 42 44  1  0
 47 48  1  0
 48 53  1  0
 48 49  1  6
 53 54  2  0
 53 55  1  0
 49 50  1  0
 50 51  1  1
 50 52  1  0
 55 56  1  0
 56 64  1  0
 56 57  1  6
 64 65  2  0
 64 66  1  0
 57 58  1  0
 58 59  4  0
 58 63  4  0
 59 60  4  0
 63 62  4  0
 60 61  4  0
 62 61  4  0
 66 67  1  0
 67 72  1  0
 67 68  1  6
 72 74  1  0
 72 73  2  0
 68 69  1  0
 69 70  1  1
 69 71  1  0
M  CHG  2   6   1  74  -1
M  END
$$$$
