
     RDKit          3D

 22 24  0  0  0  0  0  0  0  0999 V2000
   57.3751   13.9835   33.2078 C   0  0  0  0  0  0  0  0  0  0  0  0
   57.3383   14.7060   32.1369 C   0  0  0  0  0  0  0  0  0  0  0  0
   57.1419   15.4920   30.9045 C   0  0  0  0  0  0  0  0  0  0  0  0
   58.3955   16.6964   30.5862 S   0  0  0  0  0  0  0  0  0  0  0  0
   59.5102   16.4769   31.9741 C   0  0  0  0  0  0  0  0  0  0  0  0
   60.9645   16.2101   31.5589 C   0  0  1  0  0  0  0  0  0  0  0  0
   61.0736   16.1348   30.0197 C   0  0  0  0  0  0  0  0  0  0  0  0
   62.1805   17.0914   29.6977 N   0  0  1  0  0  4  0  0  0  0  0  0
   62.2327   17.5201   28.3326 C   0  0  0  0  0  0  0  0  0  0  0  0
   61.0034   17.4312   27.4607 C   0  0  0  0  0  0  0  0  0  0  0  0
   60.5526   16.3631   26.7369 C   0  0  0  0  0  0  0  0  0  0  0  0
   59.5903   16.7161   25.8806 N   0  0  0  0  0  0  0  0  0  0  0  0
   59.3939   18.0445   25.9101 C   0  0  0  0  0  0  0  0  0  0  0  0
   58.8519   19.0939   25.1083 C   0  0  0  0  0  0  0  0  0  0  0  0
   58.6053   18.7388   23.8085 N   0  0  0  0  0  0  0  0  0  0  0  0
   58.8960   20.3545   25.5571 N   0  0  0  0  0  0  0  0  0  0  0  0
   59.6037   20.7167   26.6145 C   0  0  0  0  0  0  0  0  0  0  0  0
   60.2369   19.8763   27.4417 N   0  0  0  0  0  0  0  0  0  0  0  0
   60.1841   18.5611   27.0344 C   0  0  0  0  0  0  0  0  0  0  0  0
   62.0127   18.2118   30.6637 C   0  0  0  0  0  0  0  0  0  0  0  0
   61.8583   17.3853   31.9771 C   0  0  2  0  0  0  0  0  0  0  0  0
   63.1580   16.9656   32.3597 O   0  0  0  0  0  0  0  0  0  0  0  0
 21 22  1  6
 21 20  1  0
 21  6  1  0
 20  8  1  0
  8  7  1  0
  8  9  1  6
  7  6  1  0
  6  5  1  6
  5  4  1  0
  4  3  1  0
  3  2  1  0
  2  1  3  0
  9 10  1  0
 10 19  4  0
 10 11  4  0
 19 18  4  0
 19 13  4  0
 18 17  4  0
 11 12  4  0
 12 13  4  0
 13 14  4  0
 14 15  1  0
 14 16  4  0
 16 17  4  0
M  CHG  1   8   1
M  END
$$$$
