
     RDKit          3D

 22 24  0  0  0  0  0  0  0  0999 V2000
   57.7300   13.6700   34.8490 C   0  0  0  0  0  0  0  0  0  0  0  0
   58.3060   13.2600   33.7860 C   0  0  0  0  0  0  0  0  0  0  0  0
   58.9240   12.8310   32.5430 C   0  0  0  0  0  0  0  0  0  0  0  0
   58.3790   13.6470   31.1150 S   0  0  0  0  0  0  0  0  0  0  0  0
   58.7810   15.3560   31.4370 C   0  0  0  0  0  0  0  0  0  0  0  0
   60.2890   15.6160   31.5260 C   0  0  1  0  0  0  0  0  0  0  0  0
   61.0000   15.2740   30.2140 C   0  0  0  0  0  0  0  0  0  0  0  0
   61.7930   16.4790   29.9040 N   0  0  1  0  0  4  0  0  0  0  0  0
   62.2260   16.5950   28.5170 C   0  0  0  0  0  0  0  0  0  0  0  0
   61.2180   16.6900   27.4150 C   0  0  0  0  0  0  0  0  0  0  0  0
   60.8240   15.7010   26.5650 C   0  0  0  0  0  0  0  0  0  0  0  0
   59.9610   16.1390   25.6300 N   0  0  0  0  0  0  0  0  0  0  0  0
   59.7880   17.4750   25.7800 C   0  0  0  0  0  0  0  0  0  0  0  0
   59.0780   18.5300   25.1040 C   0  0  0  0  0  0  0  0  0  0  0  0
   58.3220   18.2470   24.0420 N   0  0  0  0  0  0  0  0  0  0  0  0
   59.1950   19.7660   25.6340 N   0  0  0  0  0  0  0  0  0  0  0  0
   59.9650   20.0570   26.6750 C   0  0  0  0  0  0  0  0  0  0  0  0
   60.6700   19.1640   27.3660 N   0  0  0  0  0  0  0  0  0  0  0  0
   60.5890   17.9060   26.9090 C   0  0  0  0  0  0  0  0  0  0  0  0
   60.9860   17.6160   30.3940 C   0  0  0  0  0  0  0  0  0  0  0  0
   60.6040   17.0930   31.7640 C   0  0  2  0  0  0  0  0  0  0  0  0
   61.7160   17.2870   32.6410 O   0  0  0  0  0  0  0  0  0  0  0  0
 21 22  1  1
 21 20  1  0
 21  6  1  0
 20  8  1  0
  8  7  1  0
  8  9  1  6
  7  6  1  0
  6  5  1  6
  5  4  1  0
  4  3  1  0
  3  2  1  0
  2  1  3  0
  9 10  1  0
 10 19  1  0
 10 11  2  0
 19 18  2  0
 19 13  1  0
 18 17  1  0
 11 12  1  0
 12 13  1  0
 13 14  2  0
 14 15  1  0
 14 16  1  0
 16 17  2  0
M  CHG  1   8   1
M  END
$$$$
