
     RDKit          3D

 24 26  0  0  0  0  0  0  0  0999 V2000
   99.4634   63.0120   56.7686 C   0  0  0  0  0  0  0  0  0  0  0  0
  100.3669   63.1424   55.8421 C   0  0  0  0  0  0  0  0  0  0  0  0
  101.4475   63.6169   54.9375 C   0  0  0  0  0  0  0  0  0  0  0  0
  101.3872   62.8678   53.6570 C   0  0  0  0  0  0  0  0  0  0  0  0
  102.8040   62.5978   53.1539 C   0  0  0  0  0  0  0  0  0  0  0  0
  104.0712   62.6038   54.3881 S   0  0  0  0  0  0  0  0  0  0  0  0
  104.9054   60.9895   54.2107 C   0  0  0  0  0  0  0  0  0  0  0  0
  106.3113   61.0766   53.6997 C   0  0  2  0  0  0  0  0  0  0  0  0
  106.3375   61.3545   52.1676 C   0  0  0  0  0  0  0  0  0  0  0  0
  107.1344   60.2200   51.6495 N   0  0  2  0  0  4  0  0  0  0  0  0
  106.9483   60.0112   50.2193 C   0  0  0  0  0  0  0  0  0  0  0  0
  106.2600   61.0183   49.3554 C   0  0  0  0  0  0  0  0  0  0  0  0
  104.9867   60.9913   48.7854 C   0  0  0  0  0  0  0  0  0  0  0  0
  104.6469   62.2337   48.3121 N   0  0  0  0  0  0  0  0  0  0  0  0
  105.7433   63.0712   48.3154 C   0  0  0  0  0  0  0  0  0  0  0  0
  106.1825   64.2352   47.5609 C   0  0  0  0  0  0  0  0  0  0  0  0
  105.5371   64.5002   46.3967 N   0  0  0  0  0  0  0  0  0  0  0  0
  107.3920   64.7737   47.8969 N   0  0  0  0  0  0  0  0  0  0  0  0
  108.2602   64.0872   48.6581 C   0  0  0  0  0  0  0  0  0  0  0  0
  107.9903   62.9056   49.3115 N   0  0  0  0  0  0  0  0  0  0  0  0
  106.7853   62.3977   49.0733 C   0  0  0  0  0  0  0  0  0  0  0  0
  106.7990   59.0736   52.5220 C   0  0  0  0  0  0  0  0  0  0  0  0
  107.0109   59.7207   53.8876 C   0  0  2  0  0  0  0  0  0  0  0  0
  106.3382   58.9586   54.9121 O   0  0  0  0  0  0  0  0  0  0  0  0
 17 16  1  0
 16 18  4  0
 16 15  4  0
 18 19  4  0
 19 20  4  0
 20 21  4  0
 15 21  4  0
 15 14  4  0
 21 12  4  0
 14 13  4  0
 13 12  4  0
 12 11  1  0
 10 11  1  1
 10 22  1  0
 10  9  1  0
 22 23  1  0
 23 24  1  1
 23  8  1  0
  9  8  1  0
  8  7  1  1
  7  6  1  0
  6  5  1  0
  5  4  1  0
  4  3  1  0
  3  2  1  0
  2  1  3  0
M  CHG  1  10   1
M  END
$$$$
