
     RDKit          3D

 24 26  0  0  0  0  0  0  0  0999 V2000
  100.3080   63.7650   57.7850 C   0  0  0  0  0  0  0  0  0  0  0  0
  100.3750   62.5350   57.4590 C   0  0  0  0  0  0  0  0  0  0  0  0
  100.4350   61.1440   56.9860 C   0  0  0  0  0  0  0  0  0  0  0  0
  101.4050   61.0660   55.7960 C   0  0  0  0  0  0  0  0  0  0  0  0
  100.7660   61.6880   54.5750 C   0  0  0  0  0  0  0  0  0  0  0  0
  101.6840   61.6290   53.0860 S   0  0  0  0  0  0  0  0  0  0  0  0
  103.3610   62.1170   53.4770 C   0  0  0  0  0  0  0  0  0  0  0  0
  104.3310   60.9610   53.6330 C   0  0  1  0  0  0  0  0  0  0  0  0
  104.4350   60.1330   52.3420 C   0  0  0  0  0  0  0  0  0  0  0  0
  105.8860   60.1330   52.0560 N   0  0  1  0  0  4  0  0  0  0  0  0
  106.1820   59.8030   50.6680 C   0  0  0  0  0  0  0  0  0  0  0  0
  105.7250   60.6880   49.5380 C   0  0  0  0  0  0  0  0  0  0  0  0
  104.6360   60.5210   48.6800 C   0  0  0  0  0  0  0  0  0  0  0  0
  104.5690   61.5100   47.7510 N   0  0  0  0  0  0  0  0  0  0  0  0
  105.6400   62.3640   47.9290 C   0  0  0  0  0  0  0  0  0  0  0  0
  106.1260   63.5600   47.2860 C   0  0  0  0  0  0  0  0  0  0  0  0
  105.4690   64.0280   46.1970 N   0  0  0  0  0  0  0  0  0  0  0  0
  107.2510   64.1360   47.7820 N   0  0  0  0  0  0  0  0  0  0  0  0
  107.9080   63.6070   48.8400 C   0  0  0  0  0  0  0  0  0  0  0  0
  107.5210   62.5070   49.5130 N   0  0  0  0  0  0  0  0  0  0  0  0
  106.3980   61.8900   49.0620 C   0  0  0  0  0  0  0  0  0  0  0  0
  106.3760   61.4630   52.5220 C   0  0  0  0  0  0  0  0  0  0  0  0
  105.7460   61.4990   53.8940 C   0  0  2  0  0  0  0  0  0  0  0  0
  106.4450   60.6420   54.8210 O   0  0  0  0  0  0  0  0  0  0  0  0
 17 16  1  0
 16 18  2  0
 16 15  1  0
 18 19  1  0
 19 20  2  0
 20 21  1  0
 15 21  2  0
 15 14  1  0
 21 12  1  0
 14 13  1  0
 13 12  2  0
 12 11  1  0
 10 11  1  6
 10 22  1  0
 10  9  1  0
 22 23  1  0
 23 24  1  1
 23  8  1  0
  9  8  1  0
  8  7  1  6
  7  6  1  0
  6  5  1  0
  5  4  1  0
  4  3  1  0
  3  2  1  0
  2  1  3  0
M  CHG  1  10   1
M  END
$$$$
