
     RDKit          3D

 34 38  0  0  0  0  0  0  0  0999 V2000
   81.9902  161.4836  172.6299 N   0  0  0  0  0  0  0  0  0  0  0  0
   82.5140  161.9210  173.7899 C   0  0  0  0  0  0  0  0  0  0  0  0
   81.7432  162.6486  174.6252 N   0  0  0  0  0  0  0  0  0  0  0  0
   82.2647  163.4863  175.5373 C   0  0  0  0  0  0  0  0  0  0  0  0
   83.5784  163.5100  175.7446 N   0  0  0  0  0  0  0  0  0  0  0  0
   84.3986  162.7241  175.0152 C   0  0  0  0  0  0  0  0  0  0  0  0
   85.7718  162.4247  175.1398 C   0  0  0  0  0  0  0  0  0  0  0  0
   86.6694  162.6603  176.3169 C   0  0  0  0  0  0  0  0  0  0  0  0
   88.1305  162.8159  176.1548 N   0  0  2  0  0  4  0  0  0  0  0  0
   88.8839  161.7645  176.8274 C   0  0  0  0  0  0  0  0  0  0  0  0
   89.0252  162.2812  178.2481 C   0  0  2  0  0  0  0  0  0  0  0  0
   87.9966  161.6532  179.1304 C   0  0  0  0  0  0  0  0  0  0  0  0
   86.7486  160.7291  178.2698 S   0  0  0  0  0  0  0  0  0  0  0  0
   87.0250  158.9827  178.5109 C   0  0  0  0  0  0  0  0  0  0  0  0
   86.7603  158.6749  179.9846 C   0  0  0  0  0  0  0  0  0  0  0  0
   87.8325  159.2438  180.9063 C   0  0  0  0  0  0  0  0  0  0  0  0
   89.1681  158.6690  180.5291 C   0  0  0  0  0  0  0  0  0  0  0  0
   90.3740  158.7891  181.2908 C   0  0  0  0  0  0  0  0  0  0  0  0
   90.8839  157.5624  181.2621 N   0  0  0  0  0  0  0  0  0  0  0  0
   91.3617  156.6295  182.3053 C   0  0  0  0  0  0  0  0  0  0  0  0
   90.1784  156.2108  183.1471 C   0  0  0  0  0  0  0  0  0  0  0  0
   89.0147  155.6924  182.5629 C   0  0  0  0  0  0  0  0  0  0  0  0
   87.7540  156.1543  182.9082 C   0  0  0  0  0  0  0  0  0  0  0  0
   87.5627  156.9960  183.9568 C   0  0  0  0  0  0  0  0  0  0  0  0
   88.6932  157.3854  184.7261 C   0  0  0  0  0  0  0  0  0  0  0  0
   89.9942  156.8944  184.3914 C   0  0  0  0  0  0  0  0  0  0  0  0
   90.4720  156.8775  180.1248 N   0  0  0  0  0  0  0  0  0  0  0  0
   89.3605  157.5919  179.7138 N   0  0  0  0  0  0  0  0  0  0  0  0
   88.8276  163.8114  178.1144 C   0  0  1  0  0  0  0  0  0  0  0  0
   90.0214  164.5316  178.4595 O   0  0  0  0  0  0  0  0  0  0  0  0
   88.6141  164.0957  176.6537 C   0  0  0  0  0  0  0  0  0  0  0  0
   86.0806  161.6387  174.0723 C   0  0  0  0  0  0  0  0  0  0  0  0
   84.9062  161.2300  173.4356 N   0  0  0  0  0  0  0  0  0  0  0  0
   83.8812  161.8809  174.0166 C   0  0  0  0  0  0  0  0  0  0  0  0
 29 30  1  6
 29 31  1  0
 29 11  1  0
 31  9  1  0
  9  8  1  1
  9 10  1  0
  8  7  1  0
  7  6  4  0
  7 32  4  0
  6  5  4  0
  6 34  4  0
  5  4  4  0
  4  3  4  0
  3  2  4  0
  2  1  1  0
  2 34  4  0
 34 33  4  0
 33 32  4  0
 10 11  1  0
 11 12  1  1
 12 13  1  0
 13 14  1  0
 14 15  1  0
 15 16  1  0
 16 17  1  0
 17 28  4  0
 17 18  4  0
 28 27  4  0
 27 19  4  0
 19 18  4  0
 19 20  1  0
 20 21  1  0
 21 22  4  0
 21 26  4  0
 22 23  4  0
 23 24  4  0
 24 25  4  0
 25 26  4  0
M  CHG  1   9   1
M  END
$$$$
