
     RDKit          3D

 34 38  0  0  0  0  0  0  0  0999 V2000
   81.1520  161.4890  171.5170 N   0  0  0  0  0  0  0  0  0  0  0  0
   81.8360  162.1520  172.4850 C   0  0  0  0  0  0  0  0  0  0  0  0
   81.2690  163.1790  173.1670 N   0  0  0  0  0  0  0  0  0  0  0  0
   81.9250  163.8460  174.1310 C   0  0  0  0  0  0  0  0  0  0  0  0
   83.1910  163.4800  174.4510 N   0  0  0  0  0  0  0  0  0  0  0  0
   83.7760  162.4370  173.8090 C   0  0  0  0  0  0  0  0  0  0  0  0
   85.0580  161.8800  173.9810 C   0  0  0  0  0  0  0  0  0  0  0  0
   86.1730  162.3020  174.8790 C   0  0  0  0  0  0  0  0  0  0  0  0
   86.1980  161.9210  176.2970 N   0  0  2  0  0  4  0  0  0  0  0  0
   86.2950  160.4760  176.5160 C   0  0  0  0  0  0  0  0  0  0  0  0
   85.9890  160.3390  178.0020 C   0  0  2  0  0  0  0  0  0  0  0  0
   85.2230  159.0580  178.3040 C   0  0  0  0  0  0  0  0  0  0  0  0
   86.0680  157.5850  177.7960 S   0  0  0  0  0  0  0  0  0  0  0  0
   87.5520  157.4040  178.7390 C   0  0  0  0  0  0  0  0  0  0  0  0
   88.7180  157.9660  177.9370 C   0  0  0  0  0  0  0  0  0  0  0  0
   90.0790  157.6700  178.5580 C   0  0  0  0  0  0  0  0  0  0  0  0
   91.1080  158.6410  178.0190 C   0  0  0  0  0  0  0  0  0  0  0  0
   92.4980  158.4630  177.9420 C   0  0  0  0  0  0  0  0  0  0  0  0
   92.9980  159.5770  177.3790 N   0  0  0  0  0  0  0  0  0  0  0  0
   94.3290  160.0560  177.0110 C   0  0  0  0  0  0  0  0  0  0  0  0
   94.5170  159.9690  175.5090 C   0  0  0  0  0  0  0  0  0  0  0  0
   93.7010  160.6930  174.6270 C   0  0  0  0  0  0  0  0  0  0  0  0
   93.8750  160.5930  173.2550 C   0  0  0  0  0  0  0  0  0  0  0  0
   94.8700  159.7840  172.7320 C   0  0  0  0  0  0  0  0  0  0  0  0
   95.6850  159.0780  173.6020 C   0  0  0  0  0  0  0  0  0  0  0  0
   95.5160  159.1550  174.9890 C   0  0  0  0  0  0  0  0  0  0  0  0
   91.9890  160.4910  177.0900 N   0  0  0  0  0  0  0  0  0  0  0  0
   90.8100  159.8640  177.5120 N   0  0  0  0  0  0  0  0  0  0  0  0
   85.1770  161.5950  178.3420 C   0  0  1  0  0  0  0  0  0  0  0  0
   85.8310  162.4770  179.2490 O   0  0  0  0  0  0  0  0  0  0  0  0
   85.0590  162.3850  177.0580 C   0  0  0  0  0  0  0  0  0  0  0  0
   85.1390  160.8600  173.0530 C   0  0  0  0  0  0  0  0  0  0  0  0
   83.9530  160.7860  172.3750 N   0  0  0  0  0  0  0  0  0  0  0  0
   83.1200  161.7510  172.8180 C   0  0  0  0  0  0  0  0  0  0  0  0
 29 30  1  1
 29 31  1  0
 29 11  1  0
 31  9  1  0
  9  8  1  6
  9 10  1  0
  8  7  1  0
  7  6  1  0
  7 32  2  0
  6  5  2  0
  6 34  1  0
  5  4  1  0
  4  3  2  0
  3  2  1  0
  2  1  1  0
  2 34  2  0
 34 33  1  0
 33 32  1  0
 10 11  1  0
 11 12  1  6
 12 13  1  0
 13 14  1  0
 14 15  1  0
 15 16  1  0
 16 17  1  0
 17 28  1  0
 17 18  2  0
 28 27  2  0
 27 19  1  0
 19 18  1  0
 19 20  1  0
 20 21  1  0
 21 22  2  0
 21 26  1  0
 22 23  1  0
 23 24  2  0
 24 25  1  0
 25 26  2  0
M  CHG  1   9   1
M  END
$$$$
