
     RDKit          3D

 21 21  0  0  0  0  0  0  0  0999 V2000
  -15.0362  -29.5570  -13.4890 N   0  0  0  0  0  0  0  0  0  0  0  0
  -14.0020  -29.7676  -12.5539 C   0  0  1  0  0  0  0  0  0  0  0  0
  -13.9190  -28.4943  -11.6647 C   0  0  0  0  0  0  0  0  0  0  0  0
  -14.9206  -27.2968  -12.3994 S   0  0  0  0  0  0  0  0  0  0  0  0
  -16.5048  -27.4118  -11.5644 C   0  0  0  0  0  0  0  0  0  0  0  0
  -16.5265  -28.2439  -10.4329 C   0  0  0  0  0  0  0  0  0  0  0  0
  -17.6420  -29.0883  -10.2737 C   0  0  0  0  0  0  0  0  0  0  0  0
  -17.3783  -30.5700   -9.8874 C   0  0  0  0  0  0  0  0  0  0  0  0
  -16.1720  -30.5902   -8.8774 C   0  0  1  0  0  0  0  0  0  0  0  0
  -16.3935  -29.5995   -7.9381 N   0  0  0  0  0  0  0  0  0  0  0  0
  -15.9951  -31.8599   -8.0823 C   0  0  0  0  0  0  0  0  0  0  0  0
  -14.8305  -32.3304   -7.9813 O   0  0  0  0  0  0  0  0  0  0  0  0
  -16.9796  -32.5756   -7.7785 O   0  0  0  0  0  0  0  0  0  0  0  0
  -18.8895  -28.6631  -10.9260 C   0  0  0  0  0  0  0  0  0  0  0  0
  -18.8623  -27.7770  -11.9770 C   0  0  0  0  0  0  0  0  0  0  0  0
  -19.8811  -27.6640  -12.9351 O   0  0  0  0  0  0  0  0  0  0  0  0
  -17.7012  -27.0390  -12.2418 C   0  0  0  0  0  0  0  0  0  0  0  0
  -17.8097  -26.0557  -13.3242 O   0  0  0  0  0  0  0  0  0  0  0  0
  -14.1753  -31.0921  -11.7516 C   0  0  0  0  0  0  0  0  0  0  0  0
  -14.2412  -31.0208  -10.4590 O   0  0  0  0  0  0  0  0  0  0  0  0
  -14.2007  -32.2082  -12.3360 O   0  0  0  0  0  0  0  0  0  0  0  0
  9 11  1  0
 11 13  1  0
 11 12  2  0
  8  9  1  0
  9 10  1  6
  7  8  1  0
  6  7  4  0
  7 14  4  0
  5  6  4  0
  5 17  4  0
  4  5  1  0
  3  2  1  0
  3  4  1  0
  2 19  1  0
  2  1  1  1
 19 20  2  0
 19 21  1  0
 17 15  4  0
 17 18  1  0
 15 14  4  0
 15 16  1  0
M  CHG  2   1   1  10   1
M  END
$$$$
