
     RDKit          3D

 21 21  0  0  0  0  0  0  0  0999 V2000
  -17.4910  -30.3110   -8.0290 N   0  0  0  0  0  0  0  0  0  0  0  0
  -16.9640  -30.6330   -9.3410 C   0  0  2  0  0  0  0  0  0  0  0  0
  -15.5020  -30.2230   -9.3550 C   0  0  0  0  0  0  0  0  0  0  0  0
  -14.8600  -30.6020  -10.9400 S   0  0  0  0  0  0  0  0  0  0  0  0
  -13.6530  -29.3400  -11.3150 C   0  0  0  0  0  0  0  0  0  0  0  0
  -12.3230  -29.6370  -11.0370 C   0  0  0  0  0  0  0  0  0  0  0  0
  -11.3420  -28.6900  -11.3020 C   0  0  0  0  0  0  0  0  0  0  0  0
   -9.8800  -29.0400  -10.9690 C   0  0  0  0  0  0  0  0  0  0  0  0
   -9.5520  -28.5580   -9.4880 C   0  0  2  0  0  0  0  0  0  0  0  0
   -9.7660  -27.1970   -9.4210 N   0  0  0  0  0  0  0  0  0  0  0  0
   -8.1820  -28.7690   -8.9540 C   0  0  0  0  0  0  0  0  0  0  0  0
   -7.2250  -28.0960   -9.3930 O   0  0  0  0  0  0  0  0  0  0  0  0
   -8.0100  -29.5910   -8.0190 O   0  0  0  0  0  0  0  0  0  0  0  0
  -11.7220  -27.4420  -11.8420 C   0  0  0  0  0  0  0  0  0  0  0  0
  -13.0760  -27.1490  -12.1170 C   0  0  0  0  0  0  0  0  0  0  0  0
  -13.5480  -25.9280  -12.6700 O   0  0  0  0  0  0  0  0  0  0  0  0
  -14.0410  -28.0870  -11.8580 C   0  0  0  0  0  0  0  0  0  0  0  0
  -15.3910  -27.6900  -12.1780 O   0  0  0  0  0  0  0  0  0  0  0  0
  -17.8280  -29.9800  -10.4820 C   0  0  0  0  0  0  0  0  0  0  0  0
  -18.8380  -30.6290  -10.9120 O   0  0  0  0  0  0  0  0  0  0  0  0
  -17.5470  -28.8290  -10.9710 O   0  0  0  0  0  0  0  0  0  0  0  0
  9 11  1  0
 11 13  1  0
 11 12  2  0
  8  9  1  0
  9 10  1  6
  7  8  1  0
  6  7  2  0
  7 14  1  0
  5  6  1  0
  5 17  2  0
  4  5  1  0
  3  2  1  0
  3  4  1  0
  2 19  1  0
  2  1  1  1
 19 20  2  0
 19 21  1  0
 17 15  1  0
 17 18  1  0
 15 14  2  0
 15 16  1  0
M  CHG  2   1   1  10   1
M  END
$$$$
