
     RDKit          3D

 20 21  0  0  0  0  0  0  0  0999 V2000
  -24.5261   19.7361   17.2345 O   0  0  0  0  0  0  0  0  0  0  0  0
  -23.7532   19.7136   18.1730 C   0  0  0  0  0  0  0  0  0  0  0  0
  -24.2492   19.7443   19.3533 O   0  0  0  0  0  0  0  0  0  0  0  0
  -22.3951   19.7203   17.9997 C   0  0  0  0  0  0  0  0  0  0  0  0
  -21.4819   19.5471   19.0328 C   0  0  0  0  0  0  0  0  0  0  0  0
  -20.1509   19.2253   18.7936 C   0  0  0  0  0  0  0  0  0  0  0  0
  -19.6969   19.2247   17.4583 C   0  0  0  0  0  0  0  0  0  0  0  0
  -20.6112   19.2659   16.3891 C   0  0  0  0  0  0  0  0  0  0  0  0
  -20.3051   18.5987   15.2122 C   0  0  0  0  0  0  0  0  0  0  0  0
  -20.7109   19.2238   14.0298 C   0  0  0  0  0  0  0  0  0  0  0  0
  -20.3852   18.6058   12.8356 C   0  0  0  0  0  0  0  0  0  0  0  0
  -20.8391   19.1084   11.6130 O   0  0  0  0  0  0  0  0  0  0  0  0
  -19.7592   17.3587   12.8204 C   0  0  0  0  0  0  0  0  0  0  0  0
  -19.4439   16.8015   11.6507 O   0  0  0  0  0  0  0  0  0  0  0  0
  -19.2373   16.8447   14.0502 C   0  0  0  0  0  0  0  0  0  0  0  0
  -18.0402   16.1113   14.1688 C   0  0  0  0  0  0  0  0  0  0  0  0
  -16.9797   16.6396   14.5084 O   0  0  0  0  0  0  0  0  0  0  0  0
  -18.0411   14.8433   14.3516 O   0  0  0  0  0  0  0  0  0  0  0  0
  -19.7159   17.3589   15.2168 N   0  0  0  0  0  0  0  0  0  0  0  0
  -21.9046   19.6838   16.6741 C   0  0  0  0  0  0  0  0  0  0  0  0
  1  2  2  0
  2  3  1  0
  2  4  1  0
  4 20  4  0
  4  5  4  0
 20  8  4  0
  5  6  4  0
  6  7  4  0
  7  8  4  0
  8  9  1  0
  9 10  4  0
  9 19  4  0
 10 11  4  0
 19 15  4  0
 15 16  1  0
 15 13  4  0
 16 17  2  0
 16 18  1  0
 13 14  1  0
 13 11  4  0
 11 12  1  0
M  END
$$$$
