
     RDKit          3D

 18 19  0  0  0  0  0  0  0  0999 V2000
  -23.9726   15.9135  132.7394 C   0  0  0  0  0  0  0  0  0  0  0  0
  -23.9813   16.7978  133.7994 C   0  0  0  0  0  0  0  0  0  0  0  0
  -25.1774   17.1602  134.4099 C   0  0  0  0  0  0  0  0  0  0  0  0
  -25.2744   17.4783  135.7550 C   0  0  0  0  0  0  0  0  0  0  0  0
  -24.0735   17.6957  136.4754 C   0  0  0  0  0  0  0  0  0  0  0  0
  -22.8439   17.5414  135.8395 C   0  0  0  0  0  0  0  0  0  0  0  0
  -22.7771   17.1307  134.4761 C   0  0  0  0  0  0  0  0  0  0  0  0
  -21.5550   17.2396  133.8269 C   0  0  0  0  0  0  0  0  0  0  0  0
  -21.5200   16.9911  132.4486 C   0  0  0  0  0  0  0  0  0  0  0  0
  -20.3015   16.8634  131.7798 C   0  0  0  0  0  0  0  0  0  0  0  0
  -20.3326   16.2864  130.6585 O   0  0  0  0  0  0  0  0  0  0  0  0
  -19.1028   17.1953  132.4765 C   0  0  0  0  0  0  0  0  0  0  0  0
  -17.9448   17.1366  131.7771 O   0  0  0  0  0  0  0  0  0  0  0  0
  -19.1129   17.3650  133.8735 C   0  0  0  0  0  0  0  0  0  0  0  0
  -17.9233   17.4523  134.6729 C   0  0  0  0  0  0  0  0  0  0  0  0
  -17.5781   16.4239  135.2547 O   0  0  0  0  0  0  0  0  0  0  0  0
  -17.1803   18.4435  134.6697 O   0  0  0  0  0  0  0  0  0  0  0  0
  -20.3644   17.4202  134.5352 N   0  0  0  0  0  0  0  0  0  0  0  0
 16 15  2  0
 15 17  1  0
 15 14  1  0
 14 18  2  0
 14 12  1  0
 18  8  1  0
 12 13  1  0
 12 10  1  0
 10 11  2  0
 10  9  1  0
  9  8  2  0
  8  7  1  0
  7  6  4  0
  7  2  4  0
  6  5  4  0
  5  4  4  0
  4  3  4  0
  3  2  4  0
  2  1  1  0
M  END
$$$$
