
     RDKit          3D

 18 19  0  0  0  0  0  0  0  0999 V2000
  -23.8540   15.9480  134.6920 C   0  0  0  0  0  0  0  0  0  0  0  0
  -23.5240   16.9220  135.6370 C   0  0  0  0  0  0  0  0  0  0  0  0
  -24.4800   17.2380  136.5980 C   0  0  0  0  0  0  0  0  0  0  0  0
  -24.2530   18.2040  137.5770 C   0  0  0  0  0  0  0  0  0  0  0  0
  -23.0320   18.8660  137.6010 C   0  0  0  0  0  0  0  0  0  0  0  0
  -22.0570   18.5430  136.6480 C   0  0  0  0  0  0  0  0  0  0  0  0
  -22.2960   17.5800  135.6630 C   0  0  0  0  0  0  0  0  0  0  0  0
  -21.3070   17.2970  134.7190 C   0  0  0  0  0  0  0  0  0  0  0  0
  -21.5120   17.6430  133.3760 C   0  0  0  0  0  0  0  0  0  0  0  0
  -20.5510   17.3660  132.4070 C   0  0  0  0  0  0  0  0  0  0  0  0
  -20.8030   17.6950  131.2390 O   0  0  0  0  0  0  0  0  0  0  0  0
  -19.3490   16.7260  132.8110 C   0  0  0  0  0  0  0  0  0  0  0  0
  -18.4000   16.4410  131.8580 O   0  0  0  0  0  0  0  0  0  0  0  0
  -19.1130   16.3720  134.1660 C   0  0  0  0  0  0  0  0  0  0  0  0
  -17.9440   15.7400  134.6300 C   0  0  0  0  0  0  0  0  0  0  0  0
  -16.9800   15.5750  133.8560 O   0  0  0  0  0  0  0  0  0  0  0  0
  -17.8360   15.3260  135.8200 O   0  0  0  0  0  0  0  0  0  0  0  0
  -20.1110   16.6720  135.1140 N   0  0  0  0  0  0  0  0  0  0  0  0
 16 15  2  0
 15 17  1  0
 15 14  1  0
 14 18  2  0
 14 12  1  0
 18  8  1  0
 12 13  1  0
 12 10  1  0
 10 11  2  0
 10  9  1  0
  9  8  2  0
  8  7  1  0
  7  6  2  0
  7  2  1  0
  6  5  1  0
  5  4  2  0
  4  3  1  0
  3  2  2  0
  2  1  1  0
M  END
$$$$
