
     RDKit          3D

 19 20  0  0  0  0  0  0  0  0999 V2000
  -24.0817   15.1438  136.3587 C   0  0  0  0  0  0  0  0  0  0  0  0
  -24.2548   15.4944  134.9085 C   0  0  0  0  0  0  0  0  0  0  0  0
  -24.2104   16.9076  134.7601 C   0  0  0  0  0  0  0  0  0  0  0  0
  -25.3486   17.5958  135.1770 C   0  0  0  0  0  0  0  0  0  0  0  0
  -25.2645   18.9476  135.6304 C   0  0  0  0  0  0  0  0  0  0  0  0
  -24.0478   19.6138  135.4965 C   0  0  0  0  0  0  0  0  0  0  0  0
  -22.9648   18.9858  134.9460 C   0  0  0  0  0  0  0  0  0  0  0  0
  -23.0214   17.6549  134.4840 C   0  0  0  0  0  0  0  0  0  0  0  0
  -21.9519   17.1016  133.8010 C   0  0  0  0  0  0  0  0  0  0  0  0
  -21.9636   16.9829  132.4466 C   0  0  0  0  0  0  0  0  0  0  0  0
  -20.7830   16.8938  131.6985 C   0  0  0  0  0  0  0  0  0  0  0  0
  -20.8452   16.8489  130.4493 O   0  0  0  0  0  0  0  0  0  0  0  0
  -19.5892   16.8983  132.4106 C   0  0  0  0  0  0  0  0  0  0  0  0
  -18.4045   16.9001  131.6942 O   0  0  0  0  0  0  0  0  0  0  0  0
  -19.5763   16.9292  133.8037 C   0  0  0  0  0  0  0  0  0  0  0  0
  -18.4197   16.7594  134.5874 C   0  0  0  0  0  0  0  0  0  0  0  0
  -18.4894   16.1213  135.6339 O   0  0  0  0  0  0  0  0  0  0  0  0
  -17.3833   17.4169  134.3377 O   0  0  0  0  0  0  0  0  0  0  0  0
  -20.7650   16.9586  134.4945 N   0  0  0  0  0  0  0  0  0  0  0  0
 17 16  2  0
 16 18  1  0
 16 15  1  0
 15 19  2  0
 15 13  1  0
 19  9  1  0
 13 14  1  0
 13 11  1  0
 11 12  2  0
 11 10  1  0
 10  9  2  0
  9  8  1  0
  8  7  4  0
  8  3  4  0
  7  6  4  0
  6  5  4  0
  5  4  4  0
  4  3  4  0
  3  2  1  0
  2  1  1  0
M  END
$$$$
