
     RDKit          3D

 19 20  0  0  0  0  0  0  0  0999 V2000
  -23.2830   15.6880  134.8350 C   0  0  0  0  0  0  0  0  0  0  0  0
  -24.0030   17.0270  135.1200 C   0  0  0  0  0  0  0  0  0  0  0  0
  -23.3220   17.7590  136.0840 C   0  0  0  0  0  0  0  0  0  0  0  0
  -24.0730   18.2430  137.1640 C   0  0  0  0  0  0  0  0  0  0  0  0
  -23.4770   19.0060  138.1720 C   0  0  0  0  0  0  0  0  0  0  0  0
  -22.1120   19.3110  138.1090 C   0  0  0  0  0  0  0  0  0  0  0  0
  -21.3480   18.8490  137.0350 C   0  0  0  0  0  0  0  0  0  0  0  0
  -21.9460   18.0900  136.0190 C   0  0  0  0  0  0  0  0  0  0  0  0
  -21.1340   17.6800  134.9710 C   0  0  0  0  0  0  0  0  0  0  0  0
  -21.4170   18.0420  133.6530 C   0  0  0  0  0  0  0  0  0  0  0  0
  -20.6150   17.6270  132.5980 C   0  0  0  0  0  0  0  0  0  0  0  0
  -20.9240   17.9500  131.4420 O   0  0  0  0  0  0  0  0  0  0  0  0
  -19.4950   16.8490  132.9070 C   0  0  0  0  0  0  0  0  0  0  0  0
  -18.6830   16.4290  131.8830 O   0  0  0  0  0  0  0  0  0  0  0  0
  -19.1970   16.4970  134.2370 C   0  0  0  0  0  0  0  0  0  0  0  0
  -18.0970   15.7370  134.6200 C   0  0  0  0  0  0  0  0  0  0  0  0
  -17.2200   15.4690  133.7750 O   0  0  0  0  0  0  0  0  0  0  0  0
  -17.9660   15.3490  135.8170 O   0  0  0  0  0  0  0  0  0  0  0  0
  -20.0260   16.9290  135.2610 N   0  0  0  0  0  0  0  0  0  0  0  0
 17 16  2  0
 16 18  1  0
 16 15  1  0
 15 19  2  0
 15 13  1  0
 19  9  1  0
 13 14  1  0
 13 11  1  0
 11 12  2  0
 11 10  1  0
 10  9  2  0
  9  8  1  0
  8  7  2  0
  8  3  1  0
  7  6  1  0
  6  5  2  0
  5  4  1  0
  4  3  2  0
  3  2  1  0
  2  1  1  0
M  END
$$$$
