
     RDKit          3D

 22 24  0  0  0  0  0  0  0  0999 V2000
  -17.4020   15.6150  135.3890 O   0  0  0  0  0  0  0  0  0  0  0  0
  -18.1250   16.2410  136.1990 C   0  0  0  0  0  0  0  0  0  0  0  0
  -17.9740   16.0300  137.4280 O   0  0  0  0  0  1  0  0  0  0  0  0
  -19.1560   17.0690  135.7270 C   0  0  0  0  0  0  0  0  0  0  0  0
  -19.8800   17.8220  136.6720 N   0  0  0  0  0  0  0  0  0  0  0  0
  -20.9470   18.6480  136.2740 C   0  0  0  0  0  0  0  0  0  0  0  0
  -21.6830   19.4190  137.2010 C   0  0  0  0  0  0  0  0  0  0  0  0
  -21.3100   19.5800  138.5450 C   0  0  0  0  0  0  0  0  0  0  0  0
  -22.0990   20.3670  139.3980 C   0  0  0  0  0  0  0  0  0  0  0  0
  -23.2620   21.0070  138.9510 C   0  0  0  0  0  0  0  0  0  0  0  0
  -23.6580   20.8690  137.6150 C   0  0  0  0  0  0  0  0  0  0  0  0
  -24.7810   21.4480  137.0880 C   0  0  0  0  0  0  0  0  0  0  0  0
  -25.1930   21.3580  135.8070 N   0  0  0  0  0  0  0  0  0  0  0  0
  -26.2620   22.0020  135.6620 N   0  0  0  0  0  0  0  0  0  0  0  0
  -26.5890   22.5160  136.7730 N   0  0  0  0  0  0  0  0  0  0  0  0
  -25.6910   22.1910  137.7130 N   0  0  0  0  0  0  0  0  0  0  0  0
  -22.8530   20.0750  136.7800 C   0  0  0  0  0  0  0  0  0  0  0  0
  -21.2760   18.6880  134.9100 C   0  0  0  0  0  0  0  0  0  0  0  0
  -20.5920   17.9570  133.9470 C   0  0  0  0  0  0  0  0  0  0  0  0
  -20.9620   18.0610  132.7710 O   0  0  0  0  0  0  0  0  0  0  0  0
  -19.5190   17.1500  134.3540 C   0  0  0  0  0  0  0  0  0  0  0  0
  -18.8390   16.4180  133.3930 O   0  0  0  0  0  0  0  0  0  0  0  0
  3  2  1  0
  2  1  2  0
  2  4  1  0
  4  5  2  0
  4 21  1  0
  5  6  1  0
 21 22  1  0
 21 19  1  0
 19 20  2  0
 19 18  1  0
 18  6  2  0
  6  7  1  0
  7 17  2  0
  7  8  1  0
 17 11  1  0
  8  9  2  0
  9 10  1  0
 10 11  2  0
 11 12  1  0
 12 13  2  0
 12 16  1  0
 13 14  1  0
 14 15  2  0
 15 16  1  0
M  CHG  1   3  -1
M  END
$$$$
