
     RDKit          3D

 22 24  0  0  0  0  0  0  0  0999 V2000
  -23.3470   18.1076  141.2461 O   0  0  0  0  0  0  0  0  0  0  0  0
  -22.6737   18.2110  140.2015 C   0  0  0  0  0  0  0  0  0  0  0  0
  -21.4046   18.1648  140.2935 O   0  0  0  0  0  1  0  0  0  0  0  0
  -23.2841   18.6474  138.9888 C   0  0  0  0  0  0  0  0  0  0  0  0
  -23.3761   17.7122  137.9350 N   0  0  0  0  0  0  0  0  0  0  0  0
  -24.3370   17.8171  136.9198 C   0  0  0  0  0  0  0  0  0  0  0  0
  -23.9522   17.6900  135.5452 C   0  0  0  0  0  0  0  0  0  0  0  0
  -24.2201   16.5687  134.8253 C   0  0  0  0  0  0  0  0  0  0  0  0
  -24.8869   16.6905  133.5732 C   0  0  0  0  0  0  0  0  0  0  0  0
  -25.0600   17.9385  132.9568 C   0  0  0  0  0  0  0  0  0  0  0  0
  -24.8514   19.1093  133.6967 C   0  0  0  0  0  0  0  0  0  0  0  0
  -25.8465   20.0571  133.8719 C   0  0  0  0  0  0  0  0  0  0  0  0
  -27.0874   19.7399  134.2765 N   0  0  0  0  0  0  0  0  0  0  0  0
  -27.4291   20.5413  135.1619 N   0  0  0  0  0  0  0  0  0  0  0  0
  -26.6154   21.5313  135.1387 N   0  0  0  0  0  0  0  0  0  0  0  0
  -25.6230   21.3050  134.2450 N   0  0  0  0  0  0  0  0  0  0  0  0
  -23.9442   18.9687  134.7814 C   0  0  0  0  0  0  0  0  0  0  0  0
  -25.4256   18.6969  137.2177 C   0  0  0  0  0  0  0  0  0  0  0  0
  -25.2851   19.7315  138.1531 C   0  0  0  0  0  0  0  0  0  0  0  0
  -26.0644   20.7101  137.9860 O   0  0  0  0  0  0  0  0  0  0  0  0
  -24.1604   19.7706  138.9469 C   0  0  0  0  0  0  0  0  0  0  0  0
  -23.7052   21.0184  139.4341 O   0  0  0  0  0  0  0  0  0  0  0  0
  3  2  1  0
  2  1  2  0
  2  4  1  0
  4  5  2  0
  4 21  1  0
  5  6  1  0
 21 22  1  0
 21 19  1  0
 19 20  2  0
 19 18  1  0
 18  6  2  0
  6  7  1  0
  7 17  4  0
  7  8  4  0
 17 11  4  0
  8  9  4  0
  9 10  4  0
 10 11  4  0
 11 12  1  0
 12 13  4  0
 12 16  4  0
 13 14  4  0
 14 15  4  0
 15 16  4  0
M  CHG  1   3  -1
M  END
$$$$
