
     RDKit          3D

 31 33  0  0  0  0  0  0  0  0999 V2000
  -36.0407  -46.5931   23.8642 H   0  0  0  0  0  0  0  0  0  0  0  0
  -36.7840  -46.9760   23.2800 N   0  0  0  0  0  0  0  0  0  0  0  0
  -37.6150  -46.1620   22.6480 C   0  0  0  0  0  0  0  0  0  0  0  0
  -37.3790  -44.7160   22.8560 C   0  0  0  0  0  0  0  0  0  0  0  0
  -38.0880  -43.9160   21.9070 O   0  0  0  0  0  0  0  0  0  0  0  0
  -39.4670  -44.2770   21.8340 C   0  0  1  0  0  0  0  0  0  0  0  0
  -40.1590  -43.1430   21.1080 C   0  0  1  0  0  0  0  0  0  0  0  0
  -40.1590  -42.0400   21.9060 F   0  0  0  0  0  0  0  0  0  0  0  0
  -39.5510  -42.8260   19.9430 F   0  0  0  0  0  0  0  0  0  0  0  0
  -41.4360  -43.4420   20.8160 F   0  0  0  0  0  0  0  0  0  0  0  0
  -39.5610  -45.6550   21.1170 C   0  0  1  0  0  0  0  0  0  0  0  0
  -40.9460  -46.2420   21.2830 C   0  0  0  0  0  0  0  0  0  0  0  0
  -39.1200  -45.5920   19.6420 C   0  0  0  0  0  0  0  0  0  0  0  0
  -37.7610  -45.7020   19.3690 C   0  0  0  0  0  0  0  0  0  0  0  0
  -37.2890  -45.6460   18.0620 C   0  0  0  0  0  0  0  0  0  0  0  0
  -35.9160  -45.7640   17.8990 N   0  0  0  0  0  0  0  0  0  0  0  0
  -35.2440  -45.4980   16.7410 C   0  0  0  0  0  0  0  0  0  0  0  0
  -35.7060  -45.1840   15.6530 O   0  0  0  0  0  0  0  0  0  0  0  0
  -33.8040  -45.7300   16.8830 C   0  0  0  0  0  0  0  0  0  0  0  0
  -33.4900  -46.8220   17.6190 N   0  0  0  0  0  0  0  0  0  0  0  0
  -32.1650  -47.0800   17.7560 C   0  0  0  0  0  0  0  0  0  0  0  0
  -31.1560  -46.3100   17.1930 C   0  0  0  0  0  0  0  0  0  0  0  0
  -29.4900  -46.7120   17.4050 Cl  0  0  0  0  0  0  0  0  0  0  0  0
  -31.5100  -45.1980   16.4400 C   0  0  0  0  0  0  0  0  0  0  0  0
  -32.8620  -44.8990   16.2830 C   0  0  0  0  0  0  0  0  0  0  0  0
  -33.2500  -43.5030   15.3530 Cl  0  0  0  0  0  0  0  0  0  0  0  0
  -38.1630  -45.4830   16.9820 C   0  0  0  0  0  0  0  0  0  0  0  0
  -39.5280  -45.3680   17.2430 C   0  0  0  0  0  0  0  0  0  0  0  0
  -39.9930  -45.4210   18.5560 C   0  0  0  0  0  0  0  0  0  0  0  0
  -41.3020  -45.2910   18.7690 F   0  0  0  0  0  0  0  0  0  0  0  0
  -38.6140  -46.5570   21.8520 N   0  0  0  0  0  0  0  0  0  0  0  0
 11 12  1  6
  6  7  1  0
  7  8  1  1
  7  9  1  0
  7 10  1  0
 13 14  2  0
 11 13  1  0
 13 29  1  0
 14 15  1  0
 15 27  2  0
 15 16  1  0
 17 19  1  0
 16 17  1  0
 17 18  2  0
 11  6  1  0
 31 11  1  0
 19 25  1  0
 19 20  2  0
 21 22  2  0
 20 21  1  0
 24 22  1  0
 22 23  1  0
 25 24  2  0
 25 26  1  0
 28 27  1  0
 29 28  2  0
 29 30  1  0
  3  4  1  0
  3 31  1  0
  3  2  2  0
  4  5  1  0
  6  5  1  6
  2  1  1  0
M  END
$$$$
