
     RDKit          3D

 24 26  0  0  0  0  0  0  0  0999 V2000
  -23.6481   17.7302   13.3120 C   0  0  0  0  0  0  0  0  0  0  0  0
  -23.5467   17.5825   14.7415 C   0  0  0  0  0  0  0  0  0  0  0  0
  -24.6460   18.0769   15.4260 C   0  0  0  0  0  0  0  0  0  0  0  0
  -24.8817   17.7737   16.8057 C   0  0  0  0  0  0  0  0  0  0  0  0
  -25.9814   18.2691   17.4190 C   0  0  0  0  0  0  0  0  0  0  0  0
  -27.1579   17.6657   17.6138 N   0  0  0  0  0  0  0  0  0  0  0  0
  -27.8623   18.5290   18.7522 O   0  0  0  0  0  0  0  0  0  0  0  0
  -27.0416   19.5577   18.9565 C   0  0  0  0  0  0  0  0  0  0  0  0
  -27.4000   20.6867   19.4111 O   0  0  0  0  0  0  0  0  0  0  0  0
  -25.8874   19.3718   18.2565 N   0  0  0  0  0  0  0  0  0  0  0  0
  -23.8826   17.0072   17.4663 C   0  0  0  0  0  0  0  0  0  0  0  0
  -22.7477   16.5575   16.7386 C   0  0  0  0  0  0  0  0  0  0  0  0
  -22.5066   16.9333   15.4034 C   0  0  0  0  0  0  0  0  0  0  0  0
  -21.2216   16.9054   14.8434 C   0  0  0  0  0  0  0  0  0  0  0  0
  -20.2900   16.0887   15.5264 C   0  0  0  0  0  0  0  0  0  0  0  0
  -18.9945   15.7579   15.0629 C   0  0  0  0  0  0  0  0  0  0  0  0
  -18.0885   15.4267   15.8651 O   0  0  0  0  0  0  0  0  0  0  0  0
  -18.7151   16.2630   13.7351 C   0  0  0  0  0  0  0  0  0  0  0  0
  -17.5285   15.9602   13.2507 O   0  0  0  0  0  0  0  0  0  0  0  0
  -19.5254   17.2159   13.1486 C   0  0  0  0  0  0  0  0  0  0  0  0
  -19.0680   18.2713   12.5001 C   0  0  0  0  0  0  0  0  0  0  0  0
  -18.7451   19.2279   13.1817 O   0  0  0  0  0  0  0  0  0  0  0  0
  -18.4258   18.2103   11.3253 O   0  0  0  0  0  0  0  0  0  0  0  0
  -20.8539   17.2863   13.5776 N   0  0  0  0  0  0  0  0  0  0  0  0
 23 21  1  0
 21 22  2  0
 21 20  1  0
 20 24  2  0
 20 18  1  0
 24 14  1  0
 18 19  1  0
 18 16  1  0
 16 17  2  0
 16 15  1  0
 15 14  2  0
 14 13  1  0
 13  2  4  0
 13 12  4  0
  2  1  1  0
  2  3  4  0
  3  4  4  0
 12 11  4  0
 11  4  4  0
  4  5  1  0
  5  6  4  0
  5 10  4  0
  6  7  4  0
  7  8  4  0
  8  9  2  0
  8 10  4  0
M  END
$$$$
