
     RDKit          3D

 54 59  0  0  0  0  0  0  0  0999 V2000
   28.7468    9.6672   27.4043 C   0  0  0  0  0  0  0  0  0  0  0  0
   29.9538    9.0745   26.8132 C   0  0  0  0  0  0  0  0  0  0  0  0
   31.0558    9.6176   27.0015 O   0  0  0  0  0  0  0  0  0  0  0  0
   29.8971    7.8001   26.4343 N   0  0  0  0  0  0  0  0  0  0  0  0
   29.2644    7.2729   25.2342 C   0  0  2  0  0  0  0  0  0  0  0  0
   30.0852    6.1723   24.7041 C   0  0  0  0  0  0  0  0  0  0  0  0
   30.2017    5.0452   25.6590 C   0  0  0  0  0  0  0  0  0  0  0  0
   30.9385    3.8610   25.0890 C   0  0  0  0  0  0  0  0  0  0  0  0
   32.3122    4.3148   24.8963 N   0  0  0  0  0  0  0  0  0  0  0  0
   33.0580    4.9439   25.8120 C   0  0  0  0  0  0  0  0  0  0  0  0
   32.5269    6.2166   26.4159 C   0  0  0  0  0  0  0  0  0  0  0  0
   32.1918    7.2310   25.6663 C   0  0  0  0  0  0  0  0  0  0  0  0
   33.0724    7.4749   24.4567 C   0  0  0  0  0  0  0  0  0  0  0  0
   30.7752    7.7703   25.4961 C   0  0  0  0  0  0  0  0  0  0  0  0
   30.1607    7.5623   24.1454 C   0  0  0  0  0  0  0  0  0  0  0  0
   29.0878    6.6800   24.1666 O   0  0  0  0  0  0  0  0  0  0  0  0
   34.4529    4.7879   25.2893 O   0  0  0  0  0  0  0  0  0  0  0  0
   34.5928    5.2044   23.3924 Fe  0  0  0  0  0  6  0  0  0  0  0  0
   34.1011    6.7017   22.6510 O   0  0  0  0  0  0  0  0  0  0  0  0
   34.0209    7.8524   23.4702 C   0  0  0  0  0  0  0  0  0  0  0  0
   34.7078    7.7522   24.5856 N   0  0  0  0  0  0  0  0  0  0  0  0
   35.4270    8.7840   25.3477 C   0  0  0  0  0  0  0  0  0  0  0  0
   36.5213    9.4504   24.4975 C   0  0  0  0  0  0  0  0  0  0  0  0
   37.8559    8.7966   24.6489 C   0  0  0  0  0  0  0  0  0  0  0  0
   39.0028    9.2755   23.7699 C   0  0  2  0  0  0  0  0  0  0  0  0
   38.6076    9.7617   22.4650 N   0  0  0  0  0  0  0  0  0  0  0  0
   38.8685    9.1365   21.3105 C   0  0  0  0  0  0  0  0  0  0  0  0
   38.9666    9.7764   20.2968 O   0  0  0  0  0  0  0  0  0  0  0  0
   39.5402    7.8400   21.3436 C   0  0  2  0  0  0  0  0  0  0  0  0
   38.5122    6.7303   20.9517 C   0  0  0  0  0  0  0  0  0  0  0  0
   38.7542    5.3180   21.4084 C   0  0  0  0  0  0  0  0  0  0  0  0
   37.6633    4.3546   20.8880 C   0  0  0  0  0  0  0  0  0  0  0  0
   36.3685    4.6125   21.4073 N   0  0  0  0  0  0  0  0  0  0  0  0
   35.9503    3.1486   22.0415 C   0  0  0  0  0  0  0  0  0  0  0  0
   34.6979    2.9181   21.2308 C   0  0  0  0  0  0  0  0  0  0  0  0
   33.7000    3.7933   21.0846 C   0  0  0  0  0  0  0  0  0  0  0  0
   33.7721    4.8737   20.0796 C   0  0  0  0  0  0  0  0  0  0  0  0
   32.7042    4.0383   22.2170 C   0  0  0  0  0  0  0  0  0  0  0  0
   31.5913    4.8769   21.6138 C   0  0  0  0  0  0  0  0  0  0  0  0
   30.5615    4.8977   22.5400 O   0  0  0  0  0  0  0  0  0  0  0  0
   35.8789    3.7320   23.4991 O   0  0  0  0  0  0  0  0  0  0  0  0
   36.0848    4.5322   22.5864 O   0  0  0  0  0  0  0  0  0  0  0  0
   40.2056    7.5816   22.5775 N   0  0  0  0  0  0  0  0  0  0  0  0
   39.9854    8.2257   23.6784 C   0  0  0  0  0  0  0  0  0  0  0  0
   40.9433    8.3500   24.4142 O   0  0  0  0  0  0  0  0  0  0  0  0
   35.3598    6.8219   24.0537 O   0  0  0  0  0  0  0  0  0  0  0  0
   33.0373    8.9483   23.5234 C   0  0  0  0  0  0  0  0  0  0  0  0
   32.5844    9.6220   22.5345 C   0  0  0  0  0  0  0  0  0  0  0  0
   31.6216   10.7032   22.8897 C   0  0  0  0  0  0  0  0  0  0  0  0
   30.1480   10.2426   22.9894 C   0  0  0  0  0  0  0  0  0  0  0  0
   29.8427    9.5850   24.1519 O   0  0  0  0  0  0  0  0  0  0  0  0
   29.0292    8.4038   24.2810 C   0  0  0  0  0  0  0  0  0  0  0  0
   27.8814    8.6012   23.9318 O   0  0  0  0  0  0  0  0  0  0  0  0
   32.9507    4.3082   23.7841 O   0  0  0  0  0  0  0  0  0  0  0  0
 29 27  1  0
 27 28  2  0
 27 26  1  0
 29 30  1  1
 29 43  1  0
 31 30  1  0
 32 31  1  0
 33 32  1  0
 34 33  2  0
 33 42  1  0
 34 41  1  0
 35 34  1  0
 43 44  1  0
 44 25  1  0
 44 45  2  0
 25 24  1  6
 26 25  1  0
 24 23  1  0
 23 22  1  0
 22 21  1  0
 36 37  1  0
 36 38  1  0
 36 35  2  0
 38 39  1  0
 39 40  1  0
 21 20  2  0
 21 46  1  0
 20 47  1  0
 20 19  1  0
 47 48  2  0
 48 49  1  0
 49 50  1  0
 50 51  1  0
 51 52  1  0
 52  5  1  0
 52 53  2  0
  5  6  1  0
  5  4  1  6
  6  7  1  0
  7  8  1  0
  8  9  1  0
  9 10  2  0
  9 54  1  0
 10 11  1  0
 10 17  1  0
 11 12  2  0
 12 14  1  0
 12 13  1  0
 14 15  1  0
 15 16  1  0
  4  2  1  0
  2  3  2  0
  2  1  1  0
 42 18  1  0
 18 41  1  0
 18 46  1  0
 18 19  1  0
 18 54  1  0
 18 17  1  0
M  CHG  3   9   1  21   1  33   1
M  END
$$$$
