
     RDKit          3D

 54 59  0  0  0  0  0  0  0  0999 V2000
   34.2610   15.8890   21.9280 C   0  0  0  0  0  0  0  0  0  0  0  0
   34.3770   14.5900   21.2090 C   0  0  0  0  0  0  0  0  0  0  0  0
   35.2730   14.4000   20.4340 O   0  0  0  0  0  0  0  0  0  0  0  0
   33.4240   13.7170   21.4550 N   0  0  0  0  0  0  0  0  0  0  0  0
   33.5200   12.2950   21.2460 C   0  0  1  0  0  0  0  0  0  0  0  0
   32.6630   11.5840   22.2410 C   0  0  0  0  0  0  0  0  0  0  0  0
   32.9180   12.0700   23.6100 C   0  0  0  0  0  0  0  0  0  0  0  0
   32.0170   11.4330   24.6360 C   0  0  0  0  0  0  0  0  0  0  0  0
   31.5930   10.0530   24.4310 N   0  0  0  0  0  0  0  0  0  0  0  0
   30.4220    9.6530   23.9940 C   0  0  0  0  0  0  0  0  0  0  0  0
   29.2350   10.5640   23.9200 C   0  0  0  0  0  0  0  0  0  0  0  0
   28.7660   11.0450   22.7920 C   0  0  0  0  0  0  0  0  0  0  0  0
   29.3880   10.6150   21.5260 C   0  0  0  0  0  0  0  0  0  0  0  0
   27.5350   11.9640   22.7330 C   0  0  0  0  0  0  0  0  0  0  0  0
   27.7870   13.3610   23.2020 C   0  0  0  0  0  0  0  0  0  0  0  0
   29.1070   13.7660   22.8930 O   0  0  0  0  0  0  0  0  0  0  0  0
   30.5310    8.2640   23.6460 O   0  0  0  0  0  0  0  0  0  0  0  0
   32.0620    7.2310   24.1240 Fe  0  0  0  0  0  6  0  0  0  0  0  0
   32.0740    7.0870   22.3670 O   0  0  0  0  0  0  0  0  0  0  0  0
   33.3620    7.2260   21.7470 C   0  0  0  0  0  0  0  0  0  0  0  0
   34.3080    6.7640   22.5030 N   0  0  0  0  0  0  0  0  0  0  0  0
   35.7180    6.5320   22.2850 C   0  0  0  0  0  0  0  0  0  0  0  0
   36.1830    5.1580   22.7980 C   0  0  0  0  0  0  0  0  0  0  0  0
   36.6470    5.2090   24.2350 C   0  0  0  0  0  0  0  0  0  0  0  0
   36.9810    3.8800   24.9210 C   0  0  2  0  0  0  0  0  0  0  0  0
   36.2410    2.7320   24.4800 N   0  0  0  0  0  0  0  0  0  0  0  0
   35.3210    2.1050   25.1660 C   0  0  0  0  0  0  0  0  0  0  0  0
   34.7250    1.1830   24.7230 O   0  0  0  0  0  0  0  0  0  0  0  0
   34.9710    2.5900   26.5110 C   0  0  2  0  0  0  0  0  0  0  0  0
   33.5500    3.2280   26.4370 C   0  0  0  0  0  0  0  0  0  0  0  0
   33.1570    4.2540   27.4640 C   0  0  0  0  0  0  0  0  0  0  0  0
   31.6970    4.7200   27.2830 C   0  0  0  0  0  0  0  0  0  0  0  0
   31.4560    5.3980   26.0600 N   0  0  0  0  0  0  0  0  0  0  0  0
   30.6900    4.9370   25.1230 C   0  0  0  0  0  0  0  0  0  0  0  0
   29.9540    3.6390   25.3830 C   0  0  0  0  0  0  0  0  0  0  0  0
   29.3490    2.8790   24.4700 C   0  0  0  0  0  0  0  0  0  0  0  0
   29.2440    3.2540   23.0430 C   0  0  0  0  0  0  0  0  0  0  0  0
   28.6500    1.5900   24.8480 C   0  0  0  0  0  0  0  0  0  0  0  0
   27.2330    1.7130   24.2980 C   0  0  0  0  0  0  0  0  0  0  0  0
   26.4960    2.4450   25.2350 O   0  0  0  0  0  0  0  0  0  0  0  0
   30.7840    5.8040   23.9790 O   0  0  0  0  0  0  0  0  0  0  0  0
   32.0030    6.4870   25.7800 O   0  0  0  0  0  0  0  0  0  0  0  0
   35.9460    3.4740   27.0420 N   0  0  0  0  0  0  0  0  0  0  0  0
   36.8840    4.0540   26.3640 C   0  0  0  0  0  0  0  0  0  0  0  0
   37.7080    4.7060   26.9000 O   0  0  0  0  0  0  0  0  0  0  0  0
   33.7850    6.5770   23.5830 O   0  0  0  0  0  0  0  0  0  0  0  0
   33.7690    7.8820   20.5180 C   0  0  0  0  0  0  0  0  0  0  0  0
   33.1980    7.8100   19.3690 C   0  0  0  0  0  0  0  0  0  0  0  0
   33.8190    8.5880   18.2740 C   0  0  0  0  0  0  0  0  0  0  0  0
   33.3650   10.0540   18.1740 C   0  0  0  0  0  0  0  0  0  0  0  0
   33.9430   10.8990   19.1210 O   0  0  0  0  0  0  0  0  0  0  0  0
   33.2260   11.9280   19.8370 C   0  0  0  0  0  0  0  0  0  0  0  0
   32.4430   12.5480   19.2180 O   0  0  0  0  0  0  0  0  0  0  0  0
   32.3290    9.0310   24.6980 O   0  0  0  0  0  0  0  0  0  0  0  0
 29 27  1  0
 27 28  2  0
 27 26  1  0
 29 30  1  6
 29 43  1  0
 31 30  1  0
 32 31  1  0
 33 32  1  0
 34 33  2  0
 33 42  1  0
 34 41  1  0
 35 34  1  0
 43 44  1  0
 44 25  1  0
 44 45  2  0
 25 24  1  6
 26 25  1  0
 24 23  1  0
 23 22  1  0
 22 21  1  0
 36 37  1  0
 36 38  1  0
 36 35  2  0
 38 39  1  0
 39 40  1  0
 21 20  2  0
 21 46  1  0
 20 47  1  0
 20 19  1  0
 47 48  2  0
 48 49  1  0
 49 50  1  0
 50 51  1  0
 51 52  1  0
 52  5  1  0
 52 53  2  0
  5  6  1  0
  5  4  1  6
  6  7  1  0
  7  8  1  0
  8  9  1  0
  9 10  2  0
  9 54  1  0
 10 11  1  0
 10 17  1  0
 11 12  2  0
 12 14  1  0
 12 13  1  0
 14 15  1  0
 15 16  1  0
  4  2  1  0
  2  3  2  0
  2  1  1  0
 42 18  1  0
 18 41  1  0
 18 46  1  0
 18 19  1  0
 18 54  1  0
 18 17  1  0
M  CHG  3   9   1  21   1  33   1
M  END
$$$$
