
     RDKit          3D

 20 20  0  0  0  0  0  0  0  0999 V2000
   -5.1230  -14.7260   19.4250 C   0  0  0  0  0  0  0  0  0  0  0  0
   -4.5400  -14.3620   18.1310 C   0  0  0  0  0  0  0  0  0  0  0  0
   -3.3760  -14.9070   17.7260 C   0  0  0  0  0  0  0  0  0  0  0  0
   -2.6340  -15.8720   18.5870 C   0  0  0  0  0  0  0  0  0  0  0  0
   -2.7650  -14.5490   16.4370 C   0  0  0  0  0  0  0  0  0  0  0  0
   -1.6180  -15.1190   16.0690 C   0  0  0  0  0  0  0  0  0  0  0  0
   -1.0020  -14.7300   14.8030 C   0  0  0  0  0  0  0  0  0  0  0  0
    0.2780  -15.0620   14.5800 C   0  0  0  0  0  0  0  0  0  0  0  0
    1.0420  -15.8120   15.6450 C   0  0  0  0  0  0  0  0  0  0  0  0
    0.9490  -14.6470   13.3290 C   0  0  0  0  0  0  0  0  0  0  0  0
    1.3230  -15.5410   12.4260 C   0  0  0  0  0  0  0  0  0  0  0  0
    2.0230  -15.2190   11.1500 C   0  0  0  0  0  0  0  0  0  0  0  0
    3.3470  -15.4550   11.1010 C   0  0  0  0  0  0  0  0  0  0  0  0
    4.0610  -15.9990   12.3070 C   0  0  0  0  0  0  0  0  0  0  0  0
    4.1660  -15.1950    9.8650 C   0  0  0  0  0  0  0  0  0  0  0  0
    3.2630  -15.4510    8.6730 C   0  0  0  0  0  0  0  0  0  0  0  0
    2.1530  -14.4200    8.7540 C   0  0  0  0  0  0  0  0  0  0  0  0
    1.2420  -14.6680    9.9560 C   0  0  1  0  0  0  0  0  0  0  0  0
    0.1280  -15.6560    9.5960 C   0  0  0  0  0  0  0  0  0  0  0  0
    0.6090  -13.3270   10.3060 C   0  0  0  0  0  0  0  0  0  0  0  0
 18 17  1  0
 18 12  1  0
 18 19  1  6
 18 20  1  0
 17 16  1  0
 16 15  1  0
 15 13  1  0
 13 12  2  0
 13 14  1  0
 12 11  1  0
 11 10  2  0
 10  8  1  0
  8  7  2  0
  8  9  1  0
  7  6  1  0
  6  5  2  0
  5  3  1  0
  3  2  2  0
  3  4  1  0
  2  1  1  0
M  END
$$$$
