
     RDKit          3D

 20 20  0  0  0  0  0  0  0  0999 V2000
   -3.1715   -7.1549  -12.5553 C   0  0  0  0  0  0  0  0  0  0  0  0
   -1.9517   -6.3958  -12.5145 C   0  0  0  0  0  0  0  0  0  0  0  0
   -1.9919   -5.0349  -12.5190 C   0  0  0  0  0  0  0  0  0  0  0  0
   -3.2525   -4.2814  -12.5053 C   0  0  0  0  0  0  0  0  0  0  0  0
   -0.7253   -4.2357  -12.3635 C   0  0  0  0  0  0  0  0  0  0  0  0
   -0.8003   -2.9947  -11.9532 C   0  0  0  0  0  0  0  0  0  0  0  0
    0.4408   -2.2003  -11.8085 C   0  0  0  0  0  0  0  0  0  0  0  0
    1.5608   -2.8204  -11.6331 C   0  0  0  0  0  0  0  0  0  0  0  0
    2.5448   -2.9888  -12.8880 C   0  0  0  0  0  0  0  0  0  0  0  0
    2.0780   -3.2375  -10.3020 C   0  0  0  0  0  0  0  0  0  0  0  0
    3.3648   -3.4091  -10.0738 C   0  0  0  0  0  0  0  0  0  0  0  0
    3.9652   -3.6976   -8.7522 C   0  0  0  0  0  0  0  0  0  0  0  0
    5.2392   -4.0215   -8.7420 C   0  0  0  0  0  0  0  0  0  0  0  0
    5.9559   -4.3626  -10.0177 C   0  0  0  0  0  0  0  0  0  0  0  0
    6.0160   -4.2272   -7.4652 C   0  0  0  0  0  0  0  0  0  0  0  0
    5.4352   -3.2086   -6.4365 C   0  0  0  0  0  0  0  0  0  0  0  0
    4.0345   -3.6825   -6.2348 C   0  0  0  0  0  0  0  0  0  0  0  0
    3.1582   -3.4550   -7.4831 C   0  0  2  0  0  0  0  0  0  0  0  0
    1.9456   -4.3298   -7.4739 C   0  0  0  0  0  0  0  0  0  0  0  0
    2.6903   -1.9943   -7.4458 C   0  0  0  0  0  0  0  0  0  0  0  0
 18 17  1  0
 18 12  1  0
 18 19  1  6
 18 20  1  0
 17 16  1  0
 16 15  1  0
 15 13  1  0
 13 12  2  0
 13 14  1  0
 12 11  1  0
 11 10  2  0
 10  8  1  0
  8  7  2  0
  8  9  1  0
  7  6  1  0
  6  5  2  0
  5  3  1  0
  3  2  2  0
  3  4  1  0
  2  1  1  0
M  END
$$$$
