
     RDKit          3D

 36 39  0  0  0  0  0  0  0  0999 V2000
   21.0530   -4.1920  -11.0910 C   0  0  0  0  0  0  0  0  0  0  0  0
   20.6400   -5.6290  -10.9790 C   0  0  0  0  0  0  0  0  0  0  0  0
   21.2240   -6.2600   -9.7990 N   0  0  0  0  0  0  0  0  0  0  0  0
   21.1680   -7.5730   -9.5760 C   0  0  0  0  0  0  0  0  0  0  0  0
   20.6520   -8.3620  -10.3620 O   0  0  0  0  0  0  0  0  0  0  0  0
   21.8320   -8.0620   -8.3570 C   0  0  0  0  0  0  0  0  0  0  0  0
   21.7690   -9.3450   -7.8820 C   0  0  0  0  0  0  0  0  0  0  0  0
   22.4870   -9.4020   -6.6590 C   0  0  0  0  0  0  0  0  0  0  0  0
   22.7360  -10.3770   -5.6160 C   0  0  0  0  0  0  0  0  0  0  0  0
   22.1810  -11.7540   -5.7340 C   0  0  0  0  0  0  0  0  0  0  0  0
   23.0020  -12.8850   -5.6000 C   0  0  0  0  0  0  0  0  0  0  0  0
   22.4910  -14.1820   -5.6930 C   0  0  0  0  0  0  0  0  0  0  0  0
   23.3970  -15.4130   -5.6120 C   0  0  1  0  0  0  0  0  0  0  0  0
   23.1240  -16.2470   -4.3620 C   0  0  0  0  0  0  0  0  0  0  0  0
   23.2540  -16.2780   -6.8620 C   0  0  0  0  0  0  0  0  0  0  0  0
   24.7840  -15.0170   -5.5400 O   0  0  0  0  0  0  0  0  0  0  0  0
   21.1240  -14.3370   -5.9150 C   0  0  0  0  0  0  0  0  0  0  0  0
   20.2900  -13.2420   -6.0560 C   0  0  0  0  0  0  0  0  0  0  0  0
   20.8140  -11.9550   -5.9680 C   0  0  0  0  0  0  0  0  0  0  0  0
   19.9970  -10.8260   -6.1160 O   0  0  0  0  0  0  0  0  0  0  0  0
   18.6100  -10.9120   -6.0930 C   0  0  0  0  0  0  0  0  0  0  0  0
   17.9370  -11.1290   -7.3040 C   0  0  0  0  0  0  0  0  0  0  0  0
   18.6620  -11.2020   -8.6240 C   0  0  0  0  0  0  0  0  0  0  0  0
   16.5490  -11.2200   -7.2580 C   0  0  0  0  0  0  0  0  0  0  0  0
   15.9080  -11.0930   -6.0490 C   0  0  0  0  0  0  0  0  0  0  0  0
   14.5510  -11.1800   -6.0280 F   0  0  0  0  0  0  0  0  0  0  0  0
   16.5640  -10.8750   -4.8600 C   0  0  0  0  0  0  0  0  0  0  0  0
   17.9520  -10.7620   -4.8620 C   0  0  0  0  0  0  0  0  0  0  0  0
   18.6820  -10.3890   -3.5980 C   0  0  0  0  0  0  0  0  0  0  0  0
   23.4170   -9.9760   -4.5020 C   0  0  0  0  0  0  0  0  0  0  0  0
   23.9150   -8.7110   -4.3290 N   0  0  0  0  0  0  0  0  0  0  0  0
   24.6430   -8.3710   -3.1060 C   0  0  0  0  0  0  0  0  0  0  0  0
   23.7520   -7.6960   -5.2860 C   0  0  0  0  0  0  0  0  0  0  0  0
   24.2540   -6.5880   -5.1030 O   0  0  0  0  0  0  0  0  0  0  0  0
   22.9930   -8.1120   -6.4370 C   0  0  0  0  0  0  0  0  0  0  0  0
   22.5800   -7.3160   -7.4780 N   0  0  0  0  0  0  0  0  0  0  0  0
 30 31  1  0
 31 32  1  0
 33 31  1  0
  7  8  1  0
  6  7  2  0
  8  9  1  0
  8 35  2  0
  9 30  2  0
  9 10  1  0
 35 33  1  0
 35 36  1  0
 11 12  2  0
 12 17  1  0
 12 13  1  0
 18 17  2  0
 19 18  1  0
 21 28  2  0
 21 22  1  0
 20 21  1  0
 27 25  2  0
 28 27  1  0
 24 25  1  0
 25 26  1  0
 22 24  2  0
 22 23  1  0
 13 14  1  1
  3  2  1  0
  4  3  1  0
  2  1  1  0
  4  5  2  0
 10 11  1  0
 10 19  2  0
 19 20  1  0
 28 29  1  0
  4  6  1  0
 13 15  1  0
 13 16  1  0
  6 36  1  0
 33 34  2  0
M  END
$$$$
