
     RDKit          3D

 36 39  0  0  0  0  0  0  0  0999 V2000
   20.3878   -6.1147  -11.6517 C   0  0  0  0  0  0  0  0  0  0  0  0
   20.3720   -7.3975  -10.8431 C   0  0  0  0  0  0  0  0  0  0  0  0
   20.8329   -7.1658   -9.4839 N   0  0  0  0  0  0  0  0  0  0  0  0
   22.0833   -7.5126   -9.0786 C   0  0  0  0  0  0  0  0  0  0  0  0
   22.9110   -7.9242   -9.8888 O   0  0  0  0  0  0  0  0  0  0  0  0
   22.2082   -7.7471   -7.6660 C   0  0  0  0  0  0  0  0  0  0  0  0
   21.4611   -8.6102   -6.8658 C   0  0  0  0  0  0  0  0  0  0  0  0
   22.0409   -8.7838   -5.6245 C   0  0  0  0  0  0  0  0  0  0  0  0
   21.9595   -9.7204   -4.5279 C   0  0  0  0  0  0  0  0  0  0  0  0
   21.1794  -10.9736   -4.7204 C   0  0  0  0  0  0  0  0  0  0  0  0
   20.7324  -11.6896   -3.5488 C   0  0  0  0  0  0  0  0  0  0  0  0
   20.3174  -13.0279   -3.6935 C   0  0  0  0  0  0  0  0  0  0  0  0
   18.8914  -13.4264   -3.2954 C   0  0  2  0  0  0  0  0  0  0  0  0
   18.8375  -14.3191   -2.0724 C   0  0  0  0  0  0  0  0  0  0  0  0
   18.2005  -14.1064   -4.4928 C   0  0  0  0  0  0  0  0  0  0  0  0
   18.0845  -12.2578   -2.9335 O   0  0  0  0  0  0  0  0  0  0  0  0
   20.9322  -13.7328   -4.7625 C   0  0  0  0  0  0  0  0  0  0  0  0
   21.3940  -13.0827   -5.8821 C   0  0  0  0  0  0  0  0  0  0  0  0
   21.2251  -11.6713   -5.9476 C   0  0  0  0  0  0  0  0  0  0  0  0
   20.3713  -11.1481   -6.9093 O   0  0  0  0  0  0  0  0  0  0  0  0
   18.9801  -11.0759   -6.6889 C   0  0  0  0  0  0  0  0  0  0  0  0
   18.5891  -10.2268   -5.7029 C   0  0  0  0  0  0  0  0  0  0  0  0
   19.1089   -8.8320   -5.5559 C   0  0  0  0  0  0  0  0  0  0  0  0
   17.4276  -10.5885   -4.9218 C   0  0  0  0  0  0  0  0  0  0  0  0
   16.6931  -11.6734   -5.3741 C   0  0  0  0  0  0  0  0  0  0  0  0
   15.3602  -11.5793   -5.1343 F   0  0  0  0  0  0  0  0  0  0  0  0
   17.1021  -12.4886   -6.3796 C   0  0  0  0  0  0  0  0  0  0  0  0
   18.1699  -12.1340   -7.1719 C   0  0  0  0  0  0  0  0  0  0  0  0
   18.2886  -12.7036   -8.5898 C   0  0  0  0  0  0  0  0  0  0  0  0
   22.8531   -9.5908   -3.5101 C   0  0  0  0  0  0  0  0  0  0  0  0
   23.9242   -8.7347   -3.5069 N   0  0  0  0  0  0  0  0  0  0  0  0
   25.0375   -8.9192   -2.6088 C   0  0  0  0  0  0  0  0  0  0  0  0
   24.1126   -7.7580   -4.5201 C   0  0  0  0  0  0  0  0  0  0  0  0
   24.8059   -6.7799   -4.3157 O   0  0  0  0  0  0  0  0  0  0  0  0
   23.1592   -7.8810   -5.5998 C   0  0  0  0  0  0  0  0  0  0  0  0
   23.2096   -7.2583   -6.8140 N   0  0  0  0  0  0  0  0  0  0  0  0
 30 31  4  0
 31 32  1  0
 33 31  4  0
  7  8  4  0
  6  7  4  0
  8  9  4  0
  8 35  4  0
  9 30  4  0
  9 10  1  0
 35 33  4  0
 35 36  4  0
 11 12  4  0
 12 17  4  0
 12 13  1  0
 18 17  4  0
 19 18  4  0
 21 28  4  0
 21 22  4  0
 20 21  1  0
 27 25  4  0
 28 27  4  0
 24 25  4  0
 25 26  1  0
 22 24  4  0
 22 23  1  0
 13 14  1  6
  3  2  1  0
  4  3  1  0
  2  1  1  0
  4  5  2  0
 10 11  4  0
 10 19  4  0
 19 20  1  0
 28 29  1  0
  4  6  1  0
 13 15  1  0
 13 16  1  0
  6 36  4  0
 33 34  2  0
M  END
$$$$
