
     RDKit          3D

 12 12  0  0  0  0  0  0  0  0999 V2000
  -21.7290   19.6060   16.4920 C   0  0  0  0  0  0  0  0  0  0  0  0
  -21.0350   18.8720   15.4580 C   0  0  0  0  0  0  0  0  0  0  0  0
  -21.4560   18.9300   14.1210 C   0  0  0  0  0  0  0  0  0  0  0  0
  -20.7980   18.2050   13.1200 C   0  0  0  0  0  0  0  0  0  0  0  0
  -21.2470   18.3060   11.9540 O   0  0  0  0  0  0  0  0  0  0  0  0
  -19.6670   17.4190   13.4720 C   0  0  0  0  0  0  0  0  0  0  0  0
  -19.0320   16.7030   12.5220 O   0  0  0  0  0  0  0  0  0  0  0  0
  -19.2090   17.3430   14.7960 C   0  0  0  0  0  0  0  0  0  0  0  0
  -18.1450   16.5840   15.3140 C   0  0  0  0  0  0  0  0  0  0  0  0
  -18.1040   16.5630   16.5580 O   0  0  0  0  0  0  0  0  0  0  0  0
  -17.2620   15.9340   14.6490 O   0  0  0  0  0  0  0  0  0  0  0  0
  -19.9110   18.0770   15.7780 N   0  0  0  0  0  0  0  0  0  0  0  0
 10  9  2  0
  9 11  1  0
  9  8  1  0
  8 12  2  0
  8  6  1  0
 12  2  1  0
  2  1  1  0
  2  3  2  0
  3  4  1  0
  4  5  2  0
  4  6  1  0
  6  7  1  0
M  END
$$$$
