
     RDKit          3D

 23 25  0  0  0  0  0  0  0  0999 V2000
  -24.3580   16.2430  134.8890 C   0  0  0  0  0  0  0  0  0  0  0  0
  -24.0780   17.2010  135.9010 C   0  0  0  0  0  0  0  0  0  0  0  0
  -25.1190   17.5160  136.7490 C   0  0  0  0  0  0  0  0  0  0  0  0
  -24.9330   18.4420  137.7720 C   0  0  0  0  0  0  0  0  0  0  0  0
  -25.9760   18.7130  138.5350 C   0  0  0  0  0  0  0  0  0  0  0  0
  -27.2440   18.4650  138.1580 N   0  0  0  0  0  0  0  0  0  0  0  0
  -27.9520   18.8770  139.0450 N   0  0  0  0  0  0  0  0  0  0  0  0
  -27.1710   19.4030  140.0190 N   0  0  0  0  0  0  0  0  0  0  0  0
  -25.9490   19.3210  139.7200 N   0  0  0  0  0  0  0  0  0  0  0  0
  -23.6930   19.0960  137.9400 C   0  0  0  0  0  0  0  0  0  0  0  0
  -22.6360   18.8020  137.0800 C   0  0  0  0  0  0  0  0  0  0  0  0
  -22.8260   17.8560  136.0690 C   0  0  0  0  0  0  0  0  0  0  0  0
  -21.7720   17.6080  135.1970 C   0  0  0  0  0  0  0  0  0  0  0  0
  -21.9530   17.9590  133.8600 C   0  0  0  0  0  0  0  0  0  0  0  0
  -20.9630   17.7450  132.9020 C   0  0  0  0  0  0  0  0  0  0  0  0
  -21.1840   18.0540  131.7140 O   0  0  0  0  0  0  0  0  0  0  0  0
  -19.7720   17.1780  133.3400 C   0  0  0  0  0  0  0  0  0  0  0  0
  -18.8150   16.9660  132.4390 O   0  0  0  0  0  0  0  0  0  0  0  0
  -19.5640   16.8470  134.6790 C   0  0  0  0  0  0  0  0  0  0  0  0
  -18.4070   16.3500  135.2410 C   0  0  0  0  0  0  0  0  0  0  0  0
  -18.3940   16.3990  136.4600 O   0  0  0  0  0  0  0  0  0  0  0  0
  -17.3510   16.0530  134.6110 O   0  0  0  0  0  1  0  0  0  0  0  0
  -20.5710   17.0690  135.6160 N   0  0  0  0  0  0  0  0  0  0  0  0
 22 20  1  0
 20 21  2  0
 20 19  1  0
 19 23  2  0
 19 17  1  0
 23 13  1  0
 17 18  1  0
 17 15  1  0
 15 16  2  0
 15 14  1  0
 14 13  2  0
 13 12  1  0
 12  2  2  0
 12 11  1  0
  2  1  1  0
  2  3  1  0
  3  4  2  0
 11 10  2  0
 10  4  1  0
  4  5  1  0
  5  6  2  0
  5  9  1  0
  6  7  1  0
  7  8  2  0
  8  9  1  0
M  CHG  1  22  -1
M  END
$$$$
