
     RDKit          3D

 23 25  0  0  0  0  0  0  0  0999 V2000
  -24.6557   17.4218  133.7147 C   0  0  0  0  0  0  0  0  0  0  0  0
  -24.3650   17.4278  135.1381 C   0  0  0  0  0  0  0  0  0  0  0  0
  -25.4163   17.6588  135.9867 C   0  0  0  0  0  0  0  0  0  0  0  0
  -25.1833   17.7944  137.3568 C   0  0  0  0  0  0  0  0  0  0  0  0
  -26.1052   18.3378  138.0864 C   0  0  0  0  0  0  0  0  0  0  0  0
  -27.3666   17.8232  138.1871 N   0  0  0  0  0  0  0  0  0  0  0  0
  -28.0849   18.7483  138.5459 N   0  0  0  0  0  0  0  0  0  0  0  0
  -27.2857   19.7584  139.0135 N   0  0  0  0  0  0  0  0  0  0  0  0
  -26.0693   19.5147  138.6806 N   0  0  0  0  0  0  0  0  0  0  0  0
  -23.9122   17.4825  137.9119 C   0  0  0  0  0  0  0  0  0  0  0  0
  -22.8628   17.1913  137.0663 C   0  0  0  0  0  0  0  0  0  0  0  0
  -23.0600   17.1347  135.6805 C   0  0  0  0  0  0  0  0  0  0  0  0
  -21.9775   17.0125  134.8056 C   0  0  0  0  0  0  0  0  0  0  0  0
  -21.5336   15.7143  134.5453 C   0  0  0  0  0  0  0  0  0  0  0  0
  -20.3166   15.4264  133.9657 C   0  0  0  0  0  0  0  0  0  0  0  0
  -20.1246   14.2924  133.4599 O   0  0  0  0  0  0  0  0  0  0  0  0
  -19.4625   16.4941  133.7801 C   0  0  0  0  0  0  0  0  0  0  0  0
  -18.1515   16.2764  133.5524 O   0  0  0  0  0  0  0  0  0  0  0  0
  -19.8628   17.8424  134.0250 C   0  0  0  0  0  0  0  0  0  0  0  0
  -19.0566   18.9548  134.1502 C   0  0  0  0  0  0  0  0  0  0  0  0
  -18.8357   19.2495  135.3338 O   0  0  0  0  0  0  0  0  0  0  0  0
  -18.2209   19.3543  133.2512 O   0  0  0  0  0  1  0  0  0  0  0  0
  -21.1654   18.0745  134.4568 N   0  0  0  0  0  0  0  0  0  0  0  0
 22 20  1  0
 20 21  2  0
 20 19  1  0
 19 23  2  0
 19 17  1  0
 23 13  1  0
 17 18  1  0
 17 15  1  0
 15 16  2  0
 15 14  1  0
 14 13  2  0
 13 12  1  0
 12  2  4  0
 12 11  4  0
  2  1  1  0
  2  3  4  0
  3  4  4  0
 11 10  4  0
 10  4  4  0
  4  5  1  0
  5  6  4  0
  5  9  4  0
  6  7  4  0
  7  8  4  0
  8  9  4  0
M  CHG  1  22  -1
M  END
$$$$
