
     RDKit          3D

 20 20  0  0  0  0  0  0  0  0999 V2000
   35.5556   19.2987  -23.4459 C   0  0  0  0  0  0  0  0  0  0  0  0
   35.5837   19.5015  -24.8893 C   0  0  0  0  0  0  0  0  0  0  0  0
   35.5082   20.7018  -25.5621 C   0  0  0  0  0  0  0  0  0  0  0  0
   34.7179   21.8380  -25.1152 C   0  0  0  0  0  0  0  0  0  0  0  0
   36.0688   20.7380  -26.8727 C   0  0  0  0  0  0  0  0  0  0  0  0
   35.5792   21.3974  -27.9705 C   0  0  0  0  0  0  0  0  0  0  0  0
   35.5151   22.8118  -27.9865 C   0  0  0  0  0  0  0  0  0  0  0  0
   35.1910   23.6620  -29.0575 C   0  0  0  0  0  0  0  0  0  0  0  0
   35.2211   25.1595  -28.9522 C   0  0  0  0  0  0  0  0  0  0  0  0
   34.6508   23.0318  -30.1847 C   0  0  0  0  0  0  0  0  0  0  0  0
   34.8731   21.8453  -30.6810 C   0  0  0  0  0  0  0  0  0  0  0  0
   35.8572   21.5946  -31.7250 C   0  0  1  0  0  0  0  0  0  0  0  0
   36.2209   22.6017  -32.5814 C   0  0  2  0  0  0  0  0  0  0  0  0
   35.1974   23.4207  -33.3792 C   0  0  0  0  0  0  0  0  0  0  0  0
   37.6388   22.8325  -32.9163 C   0  0  0  0  0  0  0  0  0  0  0  0
   38.5370   21.6025  -32.8255 C   0  0  0  0  0  0  0  0  0  0  0  0
   37.7248   20.3020  -32.7101 C   0  0  0  0  0  0  0  0  0  0  0  0
   36.6654   20.3275  -31.6247 C   0  0  1  0  0  0  0  0  0  0  0  0
   37.3450   20.1904  -30.2634 C   0  0  0  0  0  0  0  0  0  0  0  0
   35.7662   19.0954  -31.8247 C   0  0  0  0  0  0  0  0  0  0  0  0
 18 17  1  0
 18 12  1  0
 18 19  1  1
 18 20  1  0
 17 16  1  0
 16 15  1  0
 15 13  1  0
 13 12  1  0
 13 14  1  6
 12 11  1  6
 11 10  2  0
 10  8  1  0
  8  7  2  0
  8  9  1  0
  7  6  1  0
  6  5  2  0
  5  3  1  0
  3  2  2  0
  3  4  1  0
  2  1  1  0
M  END
$$$$
