
     RDKit          3D

 27 32  0  0  0  0  0  0  0  0999 V2000
   18.3249   58.1567  126.4602 C   0  0  0  0  0  0  0  0  0  0  0  0
   17.0486   58.9280  126.8551 C   0  0  2  0  0  0  0  0  0  0  0  0
   17.2060   59.2603  128.3842 C   0  0  0  0  0  0  0  0  0  0  0  0
   15.8538   57.9281  126.6616 C   0  0  0  0  0  0  0  0  0  0  0  0
   15.5361   56.8668  127.4678 N   0  0  0  0  0  0  0  0  0  0  0  0
   14.1247   56.5601  127.3437 C   0  0  0  0  0  0  0  0  0  0  0  0
   13.1275   56.1803  128.2971 C   0  0  0  0  0  0  0  0  0  0  0  0
   11.7852   56.2427  127.9018 C   0  0  0  0  0  0  0  0  0  0  0  0
   10.5081   56.0360  129.1209 Cl  0  0  0  0  0  0  0  0  0  0  0  0
   11.4255   56.5737  126.5940 C   0  0  0  0  0  0  0  0  0  0  0  0
    9.6440   56.6586  126.1943 Cl  0  0  0  0  0  0  0  0  0  0  0  0
   12.3665   57.0039  125.6753 C   0  0  0  0  0  0  0  0  0  0  0  0
   13.7105   57.1851  126.1271 C   0  0  0  0  0  0  0  0  0  0  0  0
   14.6970   58.2542  125.8809 C   0  0  0  0  0  0  0  0  0  0  0  0
   14.4961   59.6396  125.1690 C   0  0  0  0  0  0  0  0  0  0  0  0
   15.8708   60.1306  124.7009 C   0  0  2  0  0  0  0  0  0  0  0  0
   16.4692   59.2780  123.5178 C   0  0  0  0  0  0  0  0  0  0  0  0
   17.8317   59.4779  123.3893 N   0  0  1  0  0  4  0  0  0  0  0  0
   18.3150   59.4707  122.1309 C   0  0  0  0  0  0  0  0  0  0  0  0
   19.7030   60.3795  122.2221 C   0  0  0  0  0  0  0  0  0  0  0  0
   19.5956   61.1412  123.4430 C   0  0  0  0  0  0  0  0  0  0  0  0
   18.2942   60.7640  124.0609 C   0  0  2  0  0  0  0  0  0  0  0  0
   18.2531   60.6625  125.5668 C   0  0  0  0  0  0  0  0  0  0  0  0
   16.9856   60.2429  126.0202 C   0  0  2  0  0  0  0  0  0  0  0  0
   17.1258   61.7701  123.7254 C   0  0  0  0  0  0  0  0  0  0  0  0
   17.1968   62.4998  122.7450 O   0  0  0  0  0  0  0  0  0  0  0  0
   15.8638   61.3806  124.2086 N   0  0  0  0  0  0  0  0  0  0  0  0
  7  8  4  0
  8 10  4  0
  8  9  1  0
  6  7  4  0
  6 13  4  0
  5  6  4  0
  4 14  4  0
  4  2  1  0
  4  5  4  0
 14 15  1  0
 14 13  4  0
 16 15  1  6
 16 24  1  0
 16 17  1  0
 16 27  1  0
 24 23  1  1
 24  2  1  0
 23 22  1  0
 22 25  1  0
 22 21  1  6
 22 18  1  0
 25 27  1  0
 25 26  2  0
 21 20  2  0
 20 19  1  0
 18 19  1  1
 17 18  1  0
  2  1  1  6
  2  3  1  0
 13 12  4  0
 12 10  4  0
 10 11  1  0
M  CHG  1  18   1
M  END
$$$$
