
     RDKit          3D

 45 44  0  0  0  0  0  0  0  0999 V2000
  -11.6720    6.7940   32.1280 C   0  0  0  0  0  0  0  0  0  0  0  0
  -10.4520    7.6550   32.2250 C   0  0  0  0  0  0  0  0  0  0  0  0
   -9.9880    8.2220   30.8770 C   0  0  2  0  0  0  0  0  0  0  0  0
   -9.4960    7.1140   29.9420 C   0  0  0  0  0  0  0  0  0  0  0  0
   -8.8850    9.2770   31.0880 C   0  0  2  0  0  0  0  0  0  0  0  0
   -8.7240   10.1300   29.9140 N   0  0  0  0  0  0  0  0  0  0  0  0
   -8.2950   11.3870   30.0030 C   0  0  0  0  0  0  0  0  0  0  0  0
   -8.2230   12.1040   28.6940 C   0  0  0  0  0  0  0  0  0  0  0  0
   -7.9700   11.9280   31.0620 O   0  0  0  0  0  0  0  0  0  0  0  0
   -7.5580    8.6640   31.5460 C   0  0  0  0  0  0  0  0  0  0  0  0
   -7.3920    8.3470   32.7210 O   0  0  0  0  0  0  0  0  0  0  0  0
   -6.6050    8.5090   30.6270 N   0  0  0  0  0  0  0  0  0  0  0  0
   -5.3250    7.8830   30.9690 C   0  0  1  0  0  0  0  0  0  0  0  0
   -4.7820    7.0580   29.8050 C   0  0  0  0  0  0  0  0  0  0  0  0
   -5.6370    5.8050   29.5770 C   0  0  0  0  0  0  0  0  0  0  0  0
   -5.1030    4.8780   28.4980 C   0  0  0  0  0  0  0  0  0  0  0  0
   -4.0440    5.1780   27.9060 O   0  0  0  0  0  0  0  0  0  0  0  0
   -5.7540    3.8410   28.2420 O   0  0  0  0  0  0  0  0  0  0  0  0
   -4.3460    8.9370   31.4890 C   0  0  0  0  0  0  0  0  0  0  0  0
   -3.2490    9.1590   30.9660 O   0  0  0  0  0  0  0  0  0  0  0  0
   -4.7930    9.5860   32.5700 N   0  0  0  0  0  0  0  0  0  0  0  0
   -4.0420   10.6520   33.2070 C   0  0  1  0  0  0  0  0  0  0  0  0
   -4.5640   12.0380   32.7890 C   0  0  0  0  0  0  0  0  0  0  0  0
   -4.5680   12.2950   31.2750 C   0  0  0  0  0  0  0  0  0  0  0  0
   -3.1760   12.3620   30.6480 C   0  0  0  0  0  0  0  0  0  0  0  0
   -2.1640   12.3790   31.3850 O   0  0  0  0  0  0  0  0  0  0  0  0
   -3.0950   12.4030   29.3980 O   0  0  0  0  0  0  0  0  0  0  0  0
   -4.1450   10.4860   34.7140 C   0  0  0  0  0  0  0  0  0  0  0  0
   -5.0940    9.8870   35.2280 O   0  0  0  0  0  0  0  0  0  0  0  0
   -3.1420   10.9940   35.4190 N   0  0  0  0  0  0  0  0  0  0  0  0
   -3.1260   10.8720   36.8760 C   0  0  2  0  0  0  0  0  0  0  0  0
   -3.9380   11.9810   37.5290 C   0  0  0  0  0  0  0  0  0  0  0  0
   -4.0870   13.0810   36.9860 O   0  0  0  0  0  0  0  0  0  0  0  0
   -4.4520   11.6870   38.7230 N   0  0  0  0  0  0  0  0  0  0  0  0
   -5.2570   12.6330   39.4990 C   0  0  1  0  0  0  0  0  0  0  0  0
   -6.5130   11.9460   40.0360 C   0  0  0  0  0  0  0  0  0  0  0  0
   -7.4730   11.5360   38.9420 C   0  0  0  0  0  0  0  0  0  0  0  0
   -7.8750   10.3540   38.9360 O   0  0  0  0  0  0  0  0  0  0  0  0
   -7.8340   12.3960   38.1100 O   0  0  0  0  0  0  0  0  0  0  0  0
   -4.4660   13.1650   40.6820 C   0  0  0  0  0  0  0  0  0  0  0  0
   -3.3860   12.6590   40.9790 O   0  0  0  0  0  0  0  0  0  0  0  0
   -4.8970   14.0810   41.3920 O   0  0  0  0  0  0  0  0  0  0  0  0
   -1.6850   10.8430   37.4070 C   0  0  1  0  0  0  0  0  0  0  0  0
   -1.0310    9.5470   37.0030 C   0  0  0  0  0  0  0  0  0  0  0  0
   -0.9010   12.0570   36.8810 C   0  0  0  0  0  0  0  0  0  0  0  0
  7  9  2  0
  7  8  1  0
  7  6  1  0
  5  6  1  6
  5 10  1  0
  5  3  1  0
 10 11  2  0
 10 12  1  0
  3  2  1  0
  3  4  1  6
  2  1  1  0
 12 13  1  0
 13 19  1  0
 13 14  1  6
 19 20  2  0
 19 21  1  0
 14 15  1  0
 15 16  1  0
 16 17  2  0
 16 18  1  0
 21 22  1  0
 22 28  1  0
 22 23  1  1
 28 29  2  0
 28 30  1  0
 23 24  1  0
 24 25  1  0
 25 26  2  0
 25 27  1  0
 31 30  1  6
 31 32  1  0
 31 43  1  0
 32 33  2  0
 32 34  1  0
 43 44  1  6
 43 45  1  0
 34 35  1  0
 35 40  1  0
 35 36  1  1
 40 42  1  0
 40 41  2  0
 36 37  1  0
 37 39  1  0
 37 38  2  0
M  END
$$$$
