
     RDKit          3D

 45 44  0  0  0  0  0  0  0  0999 V2000
   -9.2206    7.0945   28.2931 C   0  0  0  0  0  0  0  0  0  0  0  0
   -8.7228    5.6861   28.3557 C   0  0  0  0  0  0  0  0  0  0  0  0
   -7.5480    5.4656   29.3134 C   0  0  2  0  0  0  0  0  0  0  0  0
   -8.0331    5.5052   30.7602 C   0  0  0  0  0  0  0  0  0  0  0  0
   -6.4802    6.5117   29.0787 C   0  0  1  0  0  0  0  0  0  0  0  0
   -6.7899    7.3812   27.8912 N   0  0  0  0  0  0  0  0  0  0  0  0
   -7.2333    8.5975   28.0273 C   0  0  0  0  0  0  0  0  0  0  0  0
   -7.9106    9.1831   26.8194 C   0  0  0  0  0  0  0  0  0  0  0  0
   -7.3468    9.1661   29.1307 O   0  0  0  0  0  0  0  0  0  0  0  0
   -6.1491    7.3441   30.2909 C   0  0  0  0  0  0  0  0  0  0  0  0
   -6.9454    7.3070   31.2499 O   0  0  0  0  0  0  0  0  0  0  0  0
   -5.1828    8.2559   30.2011 N   0  0  0  0  0  0  0  0  0  0  0  0
   -3.7646    7.8570   30.1530 C   0  0  1  0  0  0  0  0  0  0  0  0
   -3.0935    8.5643   28.9889 C   0  0  0  0  0  0  0  0  0  0  0  0
   -3.3461   10.0592   28.9861 C   0  0  0  0  0  0  0  0  0  0  0  0
   -3.3751   10.6828   27.5730 C   0  0  0  0  0  0  0  0  0  0  0  0
   -4.4645   10.8589   27.0279 O   0  0  0  0  0  0  0  0  0  0  0  0
   -2.2603   10.8411   27.0283 O   0  0  0  0  0  0  0  0  0  0  0  0
   -3.1074    8.0934   31.4871 C   0  0  0  0  0  0  0  0  0  0  0  0
   -1.9574    7.7532   31.7616 O   0  0  0  0  0  0  0  0  0  0  0  0
   -3.9040    8.6434   32.4455 N   0  0  0  0  0  0  0  0  0  0  0  0
   -3.9337   10.1201   32.6624 C   0  0  2  0  0  0  0  0  0  0  0  0
   -2.9835   10.8218   31.7154 C   0  0  0  0  0  0  0  0  0  0  0  0
   -3.1038   10.3628   30.2513 C   0  0  0  0  0  0  0  0  0  0  0  0
   -3.8055   11.2956   29.3210 C   0  0  0  0  0  0  0  0  0  0  0  0
   -5.1187   11.1515   29.2688 O   0  0  0  0  0  0  0  0  0  0  0  0
   -3.2705   12.2654   28.8056 O   0  0  0  0  0  0  0  0  0  0  0  0
   -3.5579   10.3262   34.1104 C   0  0  0  0  0  0  0  0  0  0  0  0
   -2.4773   10.8887   34.4009 O   0  0  0  0  0  0  0  0  0  0  0  0
   -4.5255   10.1839   34.9941 N   0  0  0  0  0  0  0  0  0  0  0  0
   -4.2102   10.0986   36.4245 C   0  0  2  0  0  0  0  0  0  0  0  0
   -4.5231   11.4267   37.1500 C   0  0  0  0  0  0  0  0  0  0  0  0
   -4.5594   12.5024   36.5489 O   0  0  0  0  0  0  0  0  0  0  0  0
   -4.4594   11.3170   38.4714 N   0  0  0  0  0  0  0  0  0  0  0  0
   -5.5067   11.9289   39.3365 C   0  0  2  0  0  0  0  0  0  0  0  0
   -6.7702   12.1540   38.5892 C   0  0  0  0  0  0  0  0  0  0  0  0
   -7.8231   12.8687   39.3938 C   0  0  0  0  0  0  0  0  0  0  0  0
   -9.0361   12.7553   39.0494 O   0  0  0  0  0  0  0  0  0  0  0  0
   -7.4565   13.4002   40.4543 O   0  0  0  0  0  0  0  0  0  0  0  0
   -5.0222   13.2657   39.8740 C   0  0  0  0  0  0  0  0  0  0  0  0
   -4.0978   13.2807   40.7759 O   0  0  0  0  0  0  0  0  0  0  0  0
   -5.6941   14.3012   39.8208 O   0  0  0  0  0  0  0  0  0  0  0  0
   -2.7697    9.6426   36.6369 C   0  0  2  0  0  0  0  0  0  0  0  0
   -2.4399    9.7340   38.0765 C   0  0  0  0  0  0  0  0  0  0  0  0
   -1.8504   10.5307   35.7833 C   0  0  0  0  0  0  0  0  0  0  0  0
  7  9  2  0
  7  8  1  0
  7  6  1  0
  5  6  1  1
  5 10  1  0
  5  3  1  0
 10 11  2  0
 10 12  1  0
  3  2  1  0
  3  4  1  1
  2  1  1  0
 12 13  1  0
 13 19  1  0
 13 14  1  6
 19 20  2  0
 19 21  1  0
 14 15  1  0
 15 16  1  0
 16 17  2  0
 16 18  1  0
 21 22  1  0
 22 28  1  0
 22 23  1  1
 28 29  2  0
 28 30  1  0
 23 24  1  0
 24 25  1  0
 25 26  2  0
 25 27  1  0
 31 30  1  6
 31 32  1  0
 31 43  1  0
 32 33  2  0
 32 34  1  0
 43 44  1  6
 43 45  1  0
 34 35  1  0
 35 40  1  0
 35 36  1  1
 40 42  1  0
 40 41  2  0
 36 37  1  0
 37 39  1  0
 37 38  2  0
M  END
$$$$
