
     RDKit          3D

 20 22  0  0  0  0  0  0  0  0999 V2000
   64.7050   31.6240   27.9690 O   0  0  0  0  0  0  0  0  0  0  0  0
   64.7290   32.3470   26.8260 C   0  0  0  0  0  0  0  0  0  0  0  0
   65.9410   32.5200   26.1630 C   0  0  0  0  0  0  0  0  0  0  0  0
   65.9710   33.2370   24.9810 C   0  0  0  0  0  0  0  0  0  0  0  0
   64.8070   33.8300   24.4590 C   0  0  0  0  0  0  0  0  0  0  0  0
   64.9080   34.6860   23.2450 C   0  0  0  0  0  0  0  0  0  0  0  0
   64.1610   34.6010   22.1000 C   0  0  0  0  0  0  0  0  0  0  0  0
   64.5650   35.6320   21.2460 C   0  0  0  0  0  0  0  0  0  0  0  0
   65.5200   36.3180   21.8270 N   0  0  0  0  0  0  0  0  0  0  0  0
   65.7570   35.7610   23.0930 N   0  0  0  0  0  0  0  0  0  0  0  0
   66.6960   36.2090   24.0430 C   0  0  0  0  0  0  0  0  0  0  0  0
   67.9940   35.6920   24.0300 C   0  0  0  0  0  0  0  0  0  0  0  0
   68.9010   36.0630   25.0170 C   0  0  0  0  0  0  0  0  0  0  0  0
   68.5310   36.9680   26.0080 C   0  0  0  0  0  0  0  0  0  0  0  0
   67.2420   37.4890   26.0310 C   0  0  0  0  0  0  0  0  0  0  0  0
   66.3220   37.0950   25.0650 C   0  0  0  0  0  0  0  0  0  0  0  0
   64.7220   37.7550   25.1190 Cl  0  0  0  0  0  0  0  0  0  0  0  0
   63.5840   33.6640   25.1530 C   0  0  0  0  0  0  0  0  0  0  0  0
   62.4260   34.2030   24.6980 O   0  0  0  0  0  0  0  0  0  0  0  0
   63.5520   32.9050   26.3210 C   0  0  0  0  0  0  0  0  0  0  0  0
  6  5  1  0
 10  6  1  0
  6  7  2  0
  5  4  2  0
  5 18  1  0
  9  8  2  0
 10  9  1  0
  4  3  1  0
 18 20  2  0
 18 19  1  0
  8  7  1  0
 12 13  2  0
 11 12  1  0
 16 15  1  0
 11 16  2  0
 16 17  1  0
  3  2  2  0
 20  2  1  0
 13 14  1  0
 15 14  2  0
  2  1  1  0
 10 11  1  0
M  END
$$$$
