
     RDKit          3D

 20 22  0  0  0  0  0  0  0  0999 V2000
   65.0413   31.8252   28.0565 O   0  0  0  0  0  0  0  0  0  0  0  0
   64.8946   32.3789   26.8297 C   0  0  0  0  0  0  0  0  0  0  0  0
   66.0161   32.7302   26.1142 C   0  0  0  0  0  0  0  0  0  0  0  0
   65.9310   33.4398   24.9574 C   0  0  0  0  0  0  0  0  0  0  0  0
   64.7012   33.8107   24.4590 C   0  0  0  0  0  0  0  0  0  0  0  0
   64.6203   34.6696   23.2441 C   0  0  0  0  0  0  0  0  0  0  0  0
   64.2905   34.3337   21.9940 C   0  0  0  0  0  0  0  0  0  0  0  0
   64.1160   35.4932   21.2437 C   0  0  0  0  0  0  0  0  0  0  0  0
   64.2700   36.5398   22.0177 N   0  0  0  0  0  0  0  0  0  0  0  0
   64.7887   36.0644   23.2475 N   0  0  0  0  0  0  0  0  0  0  0  0
   65.6551   36.7627   24.1056 C   0  0  0  0  0  0  0  0  0  0  0  0
   65.2489   37.0767   25.3946 C   0  0  0  0  0  0  0  0  0  0  0  0
   66.1374   37.2110   26.4453 C   0  0  0  0  0  0  0  0  0  0  0  0
   67.5251   37.1825   26.1492 C   0  0  0  0  0  0  0  0  0  0  0  0
   67.9788   37.0099   24.8357 C   0  0  0  0  0  0  0  0  0  0  0  0
   67.0477   36.8386   23.8040 C   0  0  0  0  0  0  0  0  0  0  0  0
   67.6037   36.9038   22.1973 Cl  0  0  0  0  0  0  0  0  0  0  0  0
   63.5139   33.3566   25.1028 C   0  0  0  0  0  0  0  0  0  0  0  0
   62.3172   33.3996   24.5011 O   0  0  0  0  0  0  0  0  0  0  0  0
   63.6224   32.6653   26.3358 C   0  0  0  0  0  0  0  0  0  0  0  0
  6  5  1  0
 10  6  4  0
  6  7  4  0
  5  4  4  0
  5 18  4  0
  9  8  4  0
 10  9  4  0
  4  3  4  0
 18 20  4  0
 18 19  1  0
  8  7  4  0
 12 13  4  0
 11 12  4  0
 16 15  4  0
 11 16  4  0
 16 17  1  0
  3  2  4  0
 20  2  4  0
 13 14  4  0
 15 14  4  0
  2  1  1  0
 10 11  1  0
M  END
$$$$
