
     RDKit          3D

 26 29  0  0  0  0  0  0  0  0999 V2000
   39.2613   14.7701    7.0146 C   0  0  0  0  0  0  0  0  0  0  0  0
   40.7402   15.0167    6.9476 C   0  0  0  0  0  0  0  0  0  0  0  0
   41.5375   14.0696    7.0548 O   0  0  0  0  0  0  0  0  0  0  0  0
   41.2215   16.2828    7.1570 N   0  0  0  0  0  0  0  0  0  0  0  0
   41.5084   16.8372    8.4510 C   0  0  0  0  0  0  0  0  0  0  0  0
   42.7476   16.6686    9.0896 C   0  0  0  0  0  0  0  0  0  0  0  0
   43.1700   17.5902   10.0333 C   0  0  0  0  0  0  0  0  0  0  0  0
   42.3151   18.5180   10.4967 C   0  0  0  0  0  0  0  0  0  0  0  0
   41.0117   18.6473   10.0111 C   0  0  0  0  0  0  0  0  0  0  0  0
   40.6820   17.8883    8.8886 C   0  0  0  0  0  0  0  0  0  0  0  0
   39.6175   18.4178    8.0217 N   0  0  0  0  0  0  0  0  0  0  0  0
   38.9430   19.6489    8.3393 C   0  0  0  0  0  0  0  0  0  0  0  0
   38.6591   19.7736    9.8373 C   0  0  0  0  0  0  0  0  0  0  0  0
   38.6419   18.6604   10.6377 C   0  0  0  0  0  0  0  0  0  0  0  0
   38.6222   18.7380   11.9691 C   0  0  0  0  0  0  0  0  0  0  0  0
   38.6115   19.9759   12.6276 C   0  0  0  0  0  0  0  0  0  0  0  0
   38.6306   21.1318   11.8443 C   0  0  0  0  0  0  0  0  0  0  0  0
   38.4978   21.0436   10.4597 C   0  0  0  0  0  0  0  0  0  0  0  0
   38.0917   22.2247    9.7326 C   0  0  0  0  0  0  0  0  0  0  0  0
   37.0328   22.7882    9.9969 O   0  0  0  0  0  0  0  0  0  0  0  0
   39.0595   22.8038    8.9924 O   0  0  0  0  0  0  0  0  0  0  0  0
   39.7457   18.1651    6.5639 C   0  0  0  0  0  0  0  0  0  0  0  0
   40.8603   17.2765    6.0938 C   0  0  1  0  0  0  0  0  0  0  0  0
   42.1187   18.0843    5.6544 C   0  0  1  0  0  0  0  0  0  0  0  0
   43.3944   17.7996    6.3420 C   0  0  0  0  0  0  0  0  0  0  0  0
   43.2045   17.3288    5.0226 C   0  0  0  0  0  0  0  0  0  0  0  0
 23 22  1  6
 11 22  1  0
 13 18  4  0
 12 13  1  0
 13 14  4  0
 15 16  4  0
 14 15  4  0
 17 16  4  0
 18 17  4  0
 18 19  1  0
  2  1  1  0
  2  3  2  0
  4  2  1  0
 23  4  1  0
  4  5  1  0
 23 24  1  0
 11 12  1  0
 11 10  1  0
 19 21  1  0
 19 20  2  0
 10  9  4  0
 10  5  4  0
  9  8  4  0
  8  7  4  0
  7  6  4  0
  6  5  4  0
 24 25  1  6
 24 26  1  0
 25 26  2  0
M  END
$$$$
