
     RDKit          3D

 34 38  0  0  0  0  0  0  0  0999 V2000
   39.2197   15.2860    5.5438 C   0  0  0  0  0  0  0  0  0  0  0  0
   40.6096   15.2087    6.0338 C   0  0  0  0  0  0  0  0  0  0  0  0
   41.2418   14.1474    5.9871 O   0  0  0  0  0  0  0  0  0  0  0  0
   41.0884   16.1908    6.8527 N   0  0  0  0  0  0  0  0  0  0  0  0
   40.4450   17.4214    7.1450 C   0  0  0  0  0  0  0  0  0  0  0  0
   39.6281   18.0813    6.2031 C   0  0  0  0  0  0  0  0  0  0  0  0
   38.9448   19.1918    6.5889 C   0  0  0  0  0  0  0  0  0  0  0  0
   39.0344   19.7454    7.8701 C   0  0  0  0  0  0  0  0  0  0  0  0
   38.4321   21.0737    8.2095 C   0  0  0  0  0  0  0  0  0  0  0  0
   37.6655   21.8231    7.3356 C   0  0  0  0  0  0  0  0  0  0  0  0
   37.0255   22.9071    7.6998 N   0  0  0  0  0  0  0  0  0  0  0  0
   37.1911   23.2539    8.9600 C   0  0  0  0  0  0  0  0  0  0  0  0
   36.4178   24.4561    9.4341 C   0  0  0  0  0  0  0  0  0  0  0  0
   36.0663   24.3624   10.7473 N   0  0  0  0  0  0  0  0  0  0  0  0
   36.3900   25.5300    8.8481 O   0  0  0  0  0  0  0  0  0  0  0  0
   37.9691   22.6685    9.8851 N   0  0  0  0  0  0  0  0  0  0  0  0
   38.5697   21.6043    9.4961 C   0  0  0  0  0  0  0  0  0  0  0  0
   39.8648   19.1023    8.8216 C   0  0  0  0  0  0  0  0  0  0  0  0
   40.5551   17.9037    8.4576 C   0  0  0  0  0  0  0  0  0  0  0  0
   41.2440   17.1983    9.4585 N   0  0  0  0  0  0  0  0  0  0  0  0
   41.5930   17.8801   10.7211 C   0  0  0  0  0  0  0  0  0  0  0  0
   40.3701   17.9429   11.6629 C   0  0  0  0  0  0  0  0  0  0  0  0
   39.5056   16.8792   11.7663 C   0  0  0  0  0  0  0  0  0  0  0  0
   38.7755   16.6226   12.9404 C   0  0  0  0  0  0  0  0  0  0  0  0
   38.7887   17.5583   13.9577 C   0  0  0  0  0  0  0  0  0  0  0  0
   39.5336   18.7278   13.7681 C   0  0  0  0  0  0  0  0  0  0  0  0
   40.2687   18.9618   12.6329 C   0  0  0  0  0  0  0  0  0  0  0  0
   41.1793   20.2009   12.5583 C   0  0  0  0  0  0  0  0  0  0  0  0
   42.1231   20.2201   13.6611 O   0  0  0  0  0  0  0  0  0  0  0  0
   42.4158   16.4716    9.0015 C   0  0  0  0  0  0  0  0  0  0  0  0
   42.4259   16.0736    7.5287 C   0  0  2  0  0  0  0  0  0  0  0  0
   43.4667   16.8733    6.8060 C   0  0  2  0  0  0  0  0  0  0  0  0
   44.8209   16.9482    7.3597 C   0  0  0  0  0  0  0  0  0  0  0  0
   43.9067   18.1726    7.3697 C   0  0  0  0  0  0  0  0  0  0  0  0
 31 30  1  1
 20 30  1  0
 22 27  4  0
 21 22  1  0
 22 23  4  0
 24 25  4  0
 23 24  4  0
 26 25  4  0
 27 26  4  0
 27 28  1  0
  2  1  1  0
  2  3  2  0
  4  2  1  0
 31  4  1  0
  4  5  1  0
 31 32  1  0
 20 21  1  0
 20 19  1  0
 28 29  1  0
 19 18  4  0
 19  5  4  0
 18  8  4  0
  8  7  4  0
  8  9  1  0
  7  6  4  0
  6  5  4  0
  9 10  4  0
  9 17  4  0
 10 11  4  0
 11 12  4  0
 12 16  4  0
 12 13  1  0
 16 17  4  0
 13 14  1  0
 13 15  2  0
 32 33  1  6
 32 34  1  0
 33 34  2  0
M  END
$$$$
