
     RDKit          3D

 31 35  0  0  0  0  0  0  0  0999 V2000
   39.3240   15.5150    6.0220 C   0  0  0  0  0  0  0  0  0  0  0  0
   40.6620   15.5000    6.6890 C   0  0  0  0  0  0  0  0  0  0  0  0
   41.4190   14.5490    6.5860 O   0  0  0  0  0  0  0  0  0  0  0  0
   41.0120   16.5940    7.4380 N   0  0  0  0  0  0  0  0  0  0  0  0
   40.2180   17.7640    7.6020 C   0  0  0  0  0  0  0  0  0  0  0  0
   39.3390   18.2180    6.6260 C   0  0  0  0  0  0  0  0  0  0  0  0
   38.6040   19.3690    6.8450 C   0  0  0  0  0  0  0  0  0  0  0  0
   38.7350   20.0900    8.0280 C   0  0  0  0  0  0  0  0  0  0  0  0
   37.9450   21.3260    8.2500 C   0  0  0  0  0  0  0  0  0  0  0  0
   36.7060   21.4960    7.7540 C   0  0  0  0  0  0  0  0  0  0  0  0
   35.8530   22.7210    7.9470 C   0  0  0  0  0  0  0  0  0  0  0  0
   36.6590   23.8500    8.4230 N   0  0  0  0  0  0  0  0  0  0  0  0
   37.5630   23.4290    9.4830 C   0  0  0  0  0  0  0  0  0  0  0  0
   38.5950   22.4000    9.0670 C   0  0  0  0  0  0  0  0  0  0  0  0
   39.6240   19.6390    9.0000 C   0  0  0  0  0  0  0  0  0  0  0  0
   40.3640   18.4820    8.7850 C   0  0  0  0  0  0  0  0  0  0  0  0
   41.2600   18.0430    9.7900 N   0  0  0  0  0  0  0  0  0  0  0  0
   41.4060   18.7560   11.0570 C   0  0  0  0  0  0  0  0  0  0  0  0
   40.5540   18.1640   12.1520 C   0  0  0  0  0  0  0  0  0  0  0  0
   39.5610   17.2490   11.8140 C   0  0  0  0  0  0  0  0  0  0  0  0
   38.7590   16.6790   12.7840 C   0  0  0  0  0  0  0  0  0  0  0  0
   38.9370   17.0150   14.1070 C   0  0  0  0  0  0  0  0  0  0  0  0
   39.9170   17.9210   14.4630 C   0  0  0  0  0  0  0  0  0  0  0  0
   40.7370   18.5050   13.5000 C   0  0  0  0  0  0  0  0  0  0  0  0
   41.8010   19.4930   13.9130 C   0  0  0  0  0  0  0  0  0  0  0  0
   43.0900   18.9040   13.9510 O   0  0  0  0  0  0  0  0  0  0  0  0
   42.1620   16.9200    9.5740 C   0  0  0  0  0  0  0  0  0  0  0  0
   42.3420   16.5930    8.0990 C   0  0  2  0  0  0  0  0  0  0  0  0
   43.2660   17.5380    7.3400 C   0  0  1  0  0  0  0  0  0  0  0  0
   44.7420   17.3190    7.4590 C   0  0  0  0  0  0  0  0  0  0  0  0
   44.0510   17.0000    6.1810 C   0  0  0  0  0  0  0  0  0  0  0  0
 28 27  1  1
 17 27  1  0
 19 24  1  0
 18 19  1  0
 19 20  2  0
 21 22  2  0
 20 21  1  0
 23 22  1  0
 24 23  2  0
 24 25  1  0
  2  1  1  0
  2  3  2  0
  4  2  1  0
 28  4  1  0
  4  5  1  0
 28 29  1  0
 17 18  1  0
 17 16  1  0
 25 26  1  0
 16 15  2  0
 16  5  1  0
 15  8  1  0
  8  7  2  0
  8  9  1  0
  7  6  1  0
  6  5  2  0
  9 10  2  0
  9 14  1  0
 10 11  1  0
 11 12  1  0
 12 13  1  0
 13 14  1  0
 29 30  1  1
 29 31  1  0
 30 31  2  0
M  CHG  1  12   1
M  END
$$$$
