
     RDKit          3D

 31 35  0  0  0  0  0  0  0  0999 V2000
   38.6783   15.4104    5.6513 C   0  0  0  0  0  0  0  0  0  0  0  0
   40.1809   15.3783    6.0093 C   0  0  0  0  0  0  0  0  0  0  0  0
   40.8032   14.3418    5.8563 O   0  0  0  0  0  0  0  0  0  0  0  0
   40.6528   16.3652    6.8344 N   0  0  0  0  0  0  0  0  0  0  0  0
   39.9290   17.5152    7.2438 C   0  0  0  0  0  0  0  0  0  0  0  0
   39.1292   18.2958    6.3906 C   0  0  0  0  0  0  0  0  0  0  0  0
   38.3999   19.3478    6.8741 C   0  0  0  0  0  0  0  0  0  0  0  0
   38.5488   19.7847    8.1981 C   0  0  0  0  0  0  0  0  0  0  0  0
   38.4376   21.2194    8.5530 C   0  0  0  0  0  0  0  0  0  0  0  0
   39.5341   22.0094    8.6461 C   0  0  0  0  0  0  0  0  0  0  0  0
   39.4948   23.4505    9.0936 C   0  0  0  0  0  0  0  0  0  0  0  0
   38.1472   24.0218    8.9714 N   0  0  0  0  0  0  0  0  0  0  0  0
   37.1350   23.0318    9.5109 C   0  0  0  0  0  0  0  0  0  0  0  0
   37.0608   21.7241    8.8033 C   0  0  0  0  0  0  0  0  0  0  0  0
   39.1920   18.9043    9.0861 C   0  0  0  0  0  0  0  0  0  0  0  0
   39.9885   17.8509    8.5800 C   0  0  0  0  0  0  0  0  0  0  0  0
   40.8094   17.1541    9.5110 N   0  0  0  0  0  0  0  0  0  0  0  0
   41.0696   17.6249   10.8532 C   0  0  0  0  0  0  0  0  0  0  0  0
   39.8127   17.9811   11.5988 C   0  0  0  0  0  0  0  0  0  0  0  0
   39.0441   16.9517   12.0804 C   0  0  0  0  0  0  0  0  0  0  0  0
   38.4265   17.0466   13.3271 C   0  0  0  0  0  0  0  0  0  0  0  0
   38.4781   18.2331   14.0152 C   0  0  0  0  0  0  0  0  0  0  0  0
   39.1003   19.3573   13.4306 C   0  0  0  0  0  0  0  0  0  0  0  0
   39.6845   19.2855   12.1612 C   0  0  0  0  0  0  0  0  0  0  0  0
   39.6846   20.5340   11.3387 C   0  0  0  0  0  0  0  0  0  0  0  0
   39.7178   21.6842   12.1149 O   0  0  0  0  0  0  0  0  0  0  0  0
   41.6563   16.0316    9.0569 C   0  0  0  0  0  0  0  0  0  0  0  0
   41.9157   16.1057    7.5491 C   0  0  2  0  0  0  0  0  0  0  0  0
   42.9252   17.1063    7.1168 C   0  0  1  0  0  0  0  0  0  0  0  0
   43.6097   17.9796    8.2121 C   0  0  0  0  0  0  0  0  0  0  0  0
   44.3624   16.8575    7.4933 C   0  0  0  0  0  0  0  0  0  0  0  0
 28 27  1  1
 17 27  1  0
 19 24  4  0
 18 19  1  0
 19 20  4  0
 21 22  4  0
 20 21  4  0
 23 22  4  0
 24 23  4  0
 24 25  1  0
  2  1  1  0
  2  3  2  0
  4  2  1  0
 28  4  1  0
  4  5  1  0
 28 29  1  0
 17 18  1  0
 17 16  1  0
 25 26  1  0
 16 15  4  0
 16  5  4  0
 15  8  4  0
  8  7  4  0
  8  9  1  0
  7  6  4  0
  6  5  4  0
  9 10  2  0
  9 14  1  0
 10 11  1  0
 11 12  1  0
 12 13  1  0
 13 14  1  0
 29 30  1  1
 29 31  1  0
 30 31  2  0
M  CHG  1  12   1
M  END
$$$$
