
     RDKit          3D

 21 23  0  0  0  0  0  0  0  0999 V2000
  -34.2760   79.3541   59.6087 N   0  0  0  0  0  0  0  0  0  0  0  0
  -33.0752   79.3097   59.6776 C   0  0  0  0  0  0  0  0  0  0  0  0
  -31.8635   79.4640   60.3416 C   0  0  0  0  0  0  0  0  0  0  0  0
  -31.5795   78.9420   61.6211 C   0  0  0  0  0  0  0  0  0  0  0  0
  -30.8044   79.9206   62.2783 N   0  0  0  0  0  0  0  0  0  0  0  0
  -31.2876   80.5487   63.5817 C   0  0  2  0  0  0  0  0  0  0  0  0
  -30.1902   81.1070   64.2339 O   0  0  0  0  0  0  0  0  0  0  0  0
  -30.1573   80.6455   65.5997 C   0  0  2  0  0  0  0  0  0  0  0  0
  -28.6314   80.5702   66.0645 C   0  0  0  0  0  0  0  0  0  0  0  0
  -27.8212   80.6338   64.9635 O   0  0  0  0  0  0  0  0  0  0  0  0
  -30.8293   79.2729   65.4153 C   0  0  1  0  0  0  0  0  0  0  0  0
  -31.3025   78.7623   66.7041 O   0  0  0  0  0  0  0  0  0  0  0  0
  -31.8990   79.5659   64.5572 C   0  0  1  0  0  0  0  0  0  0  0  0
  -33.0147   80.1133   65.1974 O   0  0  0  0  0  0  0  0  0  0  0  0
  -30.1036   80.5647   61.3841 C   0  0  0  0  0  0  0  0  0  0  0  0
  -28.7776   80.8603   61.4586 N   0  0  0  0  0  0  0  0  0  0  0  0
  -28.1253   81.1145   60.3454 C   0  0  0  0  0  0  0  0  0  0  0  0
  -28.8160   81.2236   59.1126 N   0  0  0  0  0  0  0  0  0  0  0  0
  -30.1633   81.0050   59.0375 C   0  0  0  0  0  0  0  0  0  0  0  0
  -30.8014   81.5970   58.1098 O   0  0  0  0  0  0  0  0  0  0  0  0
  -30.7955   80.4771   60.1647 C   0  0  0  0  0  0  0  0  0  0  0  0
  6  5  1  6
  6  7  1  0
 13  6  1  0
  5 15  4  0
  5  4  4  0
  7  8  1  0
 15 16  4  0
 15 21  4  0
 16 17  4  0
 13 14  1  1
 17 18  4  0
 19 18  4  0
 11 12  1  1
 21 19  4  0
 19 20  2  0
  2  1  3  0
  3 21  4  0
  4  3  4  0
  3  2  1  0
 13 11  1  0
 11  8  1  0
  8  9  1  6
  9 10  1  0
M  END
$$$$
