
     RDKit          3D

 18 20  0  0  0  0  0  0  0  0999 V2000
   -2.2410    8.4220  -22.3110 C   0  0  0  0  0  0  0  0  0  0  0  0
   -3.7040    8.0650  -22.3830 C   0  0  0  0  0  0  0  0  0  0  0  0
   -4.5020    8.2100  -23.3980 N   0  0  0  0  0  0  0  0  0  0  0  0
   -5.6360    7.8190  -23.1540 O   0  0  0  0  0  0  0  0  0  0  0  0
   -5.7370    7.3500  -21.9150 C   0  0  0  0  0  0  0  0  0  0  0  0
   -6.9780    6.7470  -21.2930 C   0  0  0  0  0  0  0  0  0  0  0  0
   -4.4890    7.4830  -21.3550 C   0  0  0  0  0  0  0  0  0  0  0  0
   -4.0650    7.0680  -20.0040 C   0  0  0  0  0  0  0  0  0  0  0  0
   -4.2790    5.8280  -19.5080 N   0  0  0  0  0  0  0  0  0  0  0  0
   -3.7800    5.7710  -18.2150 N   0  0  0  0  0  0  0  0  0  0  0  0
   -3.2350    6.9350  -17.9220 C   0  0  0  0  0  0  0  0  0  0  0  0
   -3.3850    7.7920  -19.0280 C   0  0  0  0  0  0  0  0  0  0  0  0
   -2.8930    9.1850  -19.1220 C   0  0  0  0  0  0  0  0  0  0  0  0
   -1.5670    9.4700  -18.7650 C   0  0  0  0  0  0  0  0  0  0  0  0
   -1.0870   10.7520  -18.9550 C   0  0  0  0  0  0  0  0  0  0  0  0
   -1.8740   11.7200  -19.4160 N   0  0  0  0  0  0  0  0  0  0  0  0
   -3.1380   11.4940  -19.7600 C   0  0  0  0  0  0  0  0  0  0  0  0
   -3.6760   10.2210  -19.6500 C   0  0  0  0  0  0  0  0  0  0  0  0
  5  6  1  0
  7  5  2  0
  5  4  1  0
  2  1  1  0
  7  2  1  0
  2  3  2  0
 10 11  1  0
 11 12  2  0
 15 16  2  0
 17 16  1  0
 14 15  1  0
 13 14  2  0
  9 10  1  0
 13 18  1  0
 18 17  2  0
 12 13  1  0
  8  7  1  0
  8  9  2  0
  8 12  1  0
  3  4  1  0
M  END
$$$$
