
     RDKit          3D

 18 20  0  0  0  0  0  0  0  0999 V2000
   -3.0984    4.4153  -20.3717 C   0  0  0  0  0  0  0  0  0  0  0  0
   -4.4704    4.9884  -20.4084 C   0  0  0  0  0  0  0  0  0  0  0  0
   -5.4788    4.5319  -21.0906 N   0  0  0  0  0  0  0  0  0  0  0  0
   -6.2715    5.4520  -21.4328 O   0  0  0  0  0  0  0  0  0  0  0  0
   -5.9755    6.5594  -20.8153 C   0  0  0  0  0  0  0  0  0  0  0  0
   -6.4894    7.9883  -21.1834 C   0  0  0  0  0  0  0  0  0  0  0  0
   -4.8702    6.2880  -19.9883 C   0  0  0  0  0  0  0  0  0  0  0  0
   -4.2854    7.1338  -18.9374 C   0  0  0  0  0  0  0  0  0  0  0  0
   -2.9913    7.3540  -18.7763 N   0  0  0  0  0  0  0  0  0  0  0  0
   -2.7537    8.3229  -17.8338 N   0  0  0  0  0  0  0  0  0  0  0  0
   -3.9402    8.7007  -17.3630 C   0  0  0  0  0  0  0  0  0  0  0  0
   -4.9414    7.9698  -17.9880 C   0  0  0  0  0  0  0  0  0  0  0  0
   -6.3487    7.8065  -17.5318 C   0  0  0  0  0  0  0  0  0  0  0  0
   -7.3326    8.5875  -18.1613 C   0  0  0  0  0  0  0  0  0  0  0  0
   -8.6234    8.4895  -17.7166 C   0  0  0  0  0  0  0  0  0  0  0  0
   -8.9716    7.6236  -16.7867 N   0  0  0  0  0  0  0  0  0  0  0  0
   -8.0659    6.8836  -16.1477 C   0  0  0  0  0  0  0  0  0  0  0  0
   -6.7135    7.0125  -16.4795 C   0  0  0  0  0  0  0  0  0  0  0  0
  5  6  1  0
  7  5  4  0
  5  4  4  0
  2  1  1  0
  7  2  4  0
  2  3  4  0
 10 11  4  0
 11 12  4  0
 15 16  4  0
 17 16  4  0
 14 15  4  0
 13 14  4  0
  9 10  4  0
 13 18  4  0
 18 17  4  0
 12 13  1  0
  8  7  1  0
  8  9  4  0
  8 12  4  0
  3  4  4  0
M  END
$$$$
