
     RDKit          3D

 20 22  0  0  0  0  0  0  0  0999 V2000
   -3.2380    7.0810  -17.1190 C   0  0  0  0  0  0  0  0  0  0  0  0
   -3.8860    6.8750  -18.4660 C   0  0  0  0  0  0  0  0  0  0  0  0
   -4.6970    5.7880  -18.6960 C   0  0  0  0  0  0  0  0  0  0  0  0
   -5.2930    5.6510  -19.9800 C   0  0  0  0  0  0  0  0  0  0  0  0
   -6.0190    4.6820  -20.2020 O   0  0  0  0  0  0  0  0  0  0  0  0
   -5.0640    6.5900  -20.9340 N   0  0  0  0  0  0  0  0  0  0  0  0
   -5.6840    6.4670  -22.2770 C   0  0  1  0  0  0  0  0  0  0  0  0
   -6.9990    7.2690  -22.3090 C   0  0  0  0  0  0  0  0  0  0  0  0
   -7.6450    7.2510  -23.7060 C   0  0  0  0  0  0  0  0  0  0  0  0
   -6.6860    7.7120  -24.7260 N   0  0  0  0  0  0  0  0  0  0  0  0
   -5.4720    6.8770  -24.7610 C   0  0  0  0  0  0  0  0  0  0  0  0
   -4.7390    6.9200  -23.4080 C   0  0  0  0  0  0  0  0  0  0  0  0
   -4.3000    7.6120  -20.6910 N   0  0  0  0  0  0  0  0  0  0  0  0
   -3.6990    7.7950  -19.5340 C   0  0  0  0  0  0  0  0  0  0  0  0
   -2.8470    8.9960  -19.3700 C   0  0  0  0  0  0  0  0  0  0  0  0
   -1.4570    8.8760  -19.2720 C   0  0  0  0  0  0  0  0  0  0  0  0
   -0.6760   10.0160  -19.1440 C   0  0  0  0  0  0  0  0  0  0  0  0
   -1.2640   11.2690  -19.1180 C   0  0  0  0  0  0  0  0  0  0  0  0
   -2.6390   11.3820  -19.1990 C   0  0  0  0  0  0  0  0  0  0  0  0
   -3.4320   10.2550  -19.3180 C   0  0  0  0  0  0  0  0  0  0  0  0
 14 13  2  0
 13  6  1  0
 14  2  1  0
 15 14  1  0
  2  3  2  0
  2  1  1  0
  3  4  1  0
  7  6  1  1
  7  8  1  0
  7 12  1  0
  8  9  1  0
  9 10  1  0
 16 17  2  0
 16 15  1  0
 17 18  1  0
 18 19  2  0
  6  4  1  0
  4  5  2  0
 15 20  2  0
 20 19  1  0
 10 11  1  0
 12 11  1  0
M  CHG  1  10   1
M  END
$$$$
