
     RDKit          3D

 20 22  0  0  0  0  0  0  0  0999 V2000
   -2.9940    7.3540  -17.5660 C   0  0  0  0  0  0  0  0  0  0  0  0
   -3.5560    7.1480  -18.9470 C   0  0  0  0  0  0  0  0  0  0  0  0
   -3.4860    8.1680  -19.9990 C   0  0  0  0  0  0  0  0  0  0  0  0
   -2.8230    9.4800  -19.8200 C   0  0  0  0  0  0  0  0  0  0  0  0
   -3.5390   10.6550  -20.0200 C   0  0  0  0  0  0  0  0  0  0  0  0
   -2.8720   11.8630  -19.9370 C   0  0  0  0  0  0  0  0  0  0  0  0
   -1.5700   11.9720  -19.6500 N   0  0  0  0  0  0  0  0  0  0  0  0
   -0.8800   10.8330  -19.5160 C   0  0  0  0  0  0  0  0  0  0  0  0
   -1.4560    9.5770  -19.5820 C   0  0  0  0  0  0  0  0  0  0  0  0
   -4.0280    7.9880  -21.1700 N   0  0  0  0  0  0  0  0  0  0  0  0
   -4.6880    6.8120  -21.4490 N   0  0  0  0  0  0  0  0  0  0  0  0
   -5.3010    6.7610  -22.7950 C   0  0  2  0  0  0  0  0  0  0  0  0
   -4.2620    7.0720  -23.8710 C   0  0  0  0  0  0  0  0  0  0  0  0
   -4.9070    7.0680  -25.2440 C   0  0  0  0  0  0  0  0  0  0  0  0
   -6.0450    8.0310  -25.2890 N   0  0  0  0  0  0  0  0  0  0  0  0
   -7.0850    7.7110  -24.2700 C   0  0  0  0  0  0  0  0  0  0  0  0
   -6.4850    7.7240  -22.8770 C   0  0  0  0  0  0  0  0  0  0  0  0
   -4.8370    5.7900  -20.5300 C   0  0  0  0  0  0  0  0  0  0  0  0
   -5.4230    4.7580  -20.8490 O   0  0  0  0  0  0  0  0  0  0  0  0
   -4.2420    6.0190  -19.2460 C   0  0  0  0  0  0  0  0  0  0  0  0
 20 18  1  0
 18 19  2  0
 18 11  1  0
  2  3  2  0
  3 10  1  0
  3  4  1  0
  4  9  2  0
  9  8  1  0
  7  6  1  0
  8  7  2  0
  6  5  2  0
 12 17  1  0
 12 11  1  1
 12 13  1  0
 13 14  1  0
 14 15  1  0
 17 16  1  0
  2  1  1  0
  2 20  1  0
 11 10  1  0
  4  5  1  0
 15 16  1  0
M  CHG  1  15   1
M  END
$$$$
