
     RDKit          3D

 20 22  0  0  0  0  0  0  0  0999 V2000
  -12.3636    5.0425  -22.3454 C   0  0  0  0  0  0  0  0  0  0  0  0
  -13.5532    5.8639  -22.6087 C   0  0  0  0  0  0  0  0  0  0  0  0
  -14.8026    5.2977  -23.2337 C   0  0  0  0  0  0  0  0  0  0  0  0
  -15.2106    3.9051  -23.0730 C   0  0  0  0  0  0  0  0  0  0  0  0
  -15.2991    3.3009  -21.8344 C   0  0  0  0  0  0  0  0  0  0  0  0
  -15.4080    1.9198  -21.7661 C   0  0  0  0  0  0  0  0  0  0  0  0
  -15.5259    1.1207  -22.8277 N   0  0  0  0  0  0  0  0  0  0  0  0
  -15.5275    1.7182  -24.0252 C   0  0  0  0  0  0  0  0  0  0  0  0
  -15.4038    3.0790  -24.2168 C   0  0  0  0  0  0  0  0  0  0  0  0
  -15.6015    6.0276  -23.9645 N   0  0  0  0  0  0  0  0  0  0  0  0
  -15.2733    7.3662  -24.1936 N   0  0  0  0  0  0  0  0  0  0  0  0
  -15.4947    7.7828  -25.6351 C   0  0  1  0  0  0  0  0  0  0  0  0
  -16.3785    9.0037  -25.6126 C   0  0  0  0  0  0  0  0  0  0  0  0
  -15.6192   10.2103  -25.1440 C   0  0  0  0  0  0  0  0  0  0  0  0
  -14.2955   10.4011  -25.8833 N   0  0  0  0  0  0  0  0  0  0  0  0
  -13.4452    9.2169  -25.7569 C   0  0  0  0  0  0  0  0  0  0  0  0
  -14.1208    7.9659  -26.3360 C   0  0  0  0  0  0  0  0  0  0  0  0
  -14.3645    8.0626  -23.4069 C   0  0  0  0  0  0  0  0  0  0  0  0
  -14.1644    9.2397  -23.6309 O   0  0  0  0  0  0  0  0  0  0  0  0
  -13.4419    7.2166  -22.6314 C   0  0  0  0  0  0  0  0  0  0  0  0
 20 18  1  0
 18 19  2  0
 18 11  1  0
  2  3  2  0
  3 10  1  0
  3  4  1  0
  4  9  4  0
  9  8  4  0
  7  6  4  0
  8  7  4  0
  6  5  4  0
 12 17  1  0
 12 11  1  6
 12 13  1  0
 13 14  1  0
 14 15  1  0
 17 16  1  0
  2  1  1  0
  2 20  1  0
 11 10  1  0
  4  5  4  0
 15 16  1  0
M  CHG  1  15   1
M  END
$$$$
