
     RDKit          3D

 19 21  0  0  0  0  0  0  0  0999 V2000
   -6.7655    6.2193  -22.2731 C   0  0  0  0  0  0  0  0  0  0  0  0
   -7.1291    6.4898  -20.8467 C   0  0  0  0  0  0  0  0  0  0  0  0
   -8.3115    6.1646  -20.4839 N   0  0  0  0  0  0  0  0  0  0  0  0
   -8.4297    6.5243  -19.1137 O   0  0  0  0  0  0  0  0  0  0  0  0
   -7.2732    6.9860  -18.7097 C   0  0  0  0  0  0  0  0  0  0  0  0
   -7.1278    7.2377  -17.2505 C   0  0  0  0  0  0  0  0  0  0  0  0
   -6.3339    6.9357  -19.7796 C   0  0  0  0  0  0  0  0  0  0  0  0
   -4.9344    7.0456  -19.6801 C   0  0  0  0  0  0  0  0  0  0  0  0
   -4.1275    5.9764  -20.0609 N   0  0  0  0  0  0  0  0  0  0  0  0
   -3.1419    6.0129  -19.1925 C   0  0  0  0  0  0  0  0  0  0  0  0
   -3.1827    7.0358  -18.2742 N   0  0  0  0  0  0  0  0  0  0  0  0
   -2.7146    6.9443  -16.9011 C   0  0  0  0  0  0  0  0  0  0  0  0
   -4.1756    7.8857  -18.7787 C   0  0  0  0  0  0  0  0  0  0  0  0
   -4.0242    9.3579  -18.8021 C   0  0  0  0  0  0  0  0  0  0  0  0
   -3.4757   10.0024  -19.9530 C   0  0  0  0  0  0  0  0  0  0  0  0
   -2.5155   10.8832  -19.7560 C   0  0  0  0  0  0  0  0  0  0  0  0
   -2.1801   11.4397  -18.5799 N   0  0  0  0  0  0  0  0  0  0  0  0
   -2.8763   10.9769  -17.5161 C   0  0  0  0  0  0  0  0  0  0  0  0
   -3.9184   10.0082  -17.6227 C   0  0  0  0  0  0  0  0  0  0  0  0
 17 16  4  0
 17 18  4  0
 16 15  4  0
 15 14  4  0
 14 13  1  0
 14 19  4  0
 13  8  4  0
 13 11  4  0
  8  7  1  0
  8  9  4  0
  9 10  4  0
 10 11  4  0
  7  2  4  0
  7  5  4  0
  2  3  4  0
  2  1  1  0
 19 18  4  0
 11 12  1  0
  5  4  4  0
  5  6  1  0
  4  3  4  0
M  END
$$$$
