
     RDKit          3D

 19 21  0  0  0  0  0  0  0  0999 V2000
   -2.1030    8.7500  -23.1560 C   0  0  0  0  0  0  0  0  0  0  0  0
   -3.5580    8.4150  -23.1840 C   0  0  0  0  0  0  0  0  0  0  0  0
   -4.2540    8.6900  -24.2500 N   0  0  0  0  0  0  0  0  0  0  0  0
   -5.5730    8.2430  -23.9880 O   0  0  0  0  0  0  0  0  0  0  0  0
   -5.6250    7.7460  -22.7380 C   0  0  0  0  0  0  0  0  0  0  0  0
   -6.9460    7.2380  -22.2920 C   0  0  0  0  0  0  0  0  0  0  0  0
   -4.3750    7.8020  -22.1770 C   0  0  0  0  0  0  0  0  0  0  0  0
   -4.0000    7.3540  -20.8530 C   0  0  0  0  0  0  0  0  0  0  0  0
   -4.3490    6.0830  -20.4200 N   0  0  0  0  0  0  0  0  0  0  0  0
   -3.9400    6.0200  -19.1730 C   0  0  0  0  0  0  0  0  0  0  0  0
   -3.2790    7.1250  -18.7630 N   0  0  0  0  0  0  0  0  0  0  0  0
   -2.7200    7.3460  -17.4330 C   0  0  0  0  0  0  0  0  0  0  0  0
   -3.3590    8.0460  -19.8350 C   0  0  0  0  0  0  0  0  0  0  0  0
   -2.7750    9.4040  -19.8020 C   0  0  0  0  0  0  0  0  0  0  0  0
   -1.4370    9.6010  -19.4760 C   0  0  0  0  0  0  0  0  0  0  0  0
   -0.9310   10.8890  -19.4830 C   0  0  0  0  0  0  0  0  0  0  0  0
   -1.6540   11.9670  -19.8120 N   0  0  0  0  0  0  0  0  0  0  0  0
   -2.9360   11.7620  -20.1490 C   0  0  0  0  0  0  0  0  0  0  0  0
   -3.5340   10.5150  -20.1640 C   0  0  0  0  0  0  0  0  0  0  0  0
 17 16  2  0
 17 18  1  0
 16 15  1  0
 15 14  2  0
 14 13  1  0
 14 19  1  0
 13  8  2  0
 13 11  1  0
  8  7  1  0
  8  9  1  0
  9 10  2  0
 10 11  1  0
  7  2  1  0
  7  5  2  0
  2  3  2  0
  2  1  1  0
 19 18  2  0
 11 12  1  0
  5  4  1  0
  5  6  1  0
  4  3  1  0
M  END
$$$$
