
     RDKit          3D

 22 24  0  0  0  0  0  0  0  0999 V2000
   -6.6450    7.7645  -21.7914 C   0  0  0  0  0  0  0  0  0  0  0  0
   -6.1289    6.3829  -22.0377 C   0  0  0  0  0  0  0  0  0  0  0  0
   -6.0658    5.9655  -23.3346 C   0  0  0  0  0  0  0  0  0  0  0  0
   -5.0177    5.1838  -23.8178 C   0  0  0  0  0  0  0  0  0  0  0  0
   -4.6059    5.1386  -25.2324 C   0  0  0  0  0  0  0  0  0  0  0  0
   -4.8710    3.8634  -25.9116 N   0  0  0  0  0  0  0  0  0  0  0  0
   -4.2269    4.4966  -22.8698 C   0  0  0  0  0  0  0  0  0  0  0  0
   -4.2893    4.8140  -21.4994 C   0  0  0  0  0  0  0  0  0  0  0  0
   -3.0678    4.5900  -20.6865 C   0  0  0  0  0  0  0  0  0  0  0  0
   -5.3722    5.6396  -21.0718 C   0  0  0  0  0  0  0  0  0  0  0  0
   -5.4738    5.9815  -19.6255 C   0  0  0  0  0  0  0  0  0  0  0  0
   -4.2968    6.1867  -18.8909 N   0  0  0  0  0  0  0  0  0  0  0  0
   -4.5815    7.0059  -17.9127 C   0  0  0  0  0  0  0  0  0  0  0  0
   -5.8909    7.3682  -17.9501 N   0  0  0  0  0  0  0  0  0  0  0  0
   -6.4346    8.5678  -17.2737 C   0  0  0  0  0  0  0  0  0  0  0  0
   -6.5219    6.5413  -18.9177 C   0  0  0  0  0  0  0  0  0  0  0  0
   -7.9398    6.1557  -18.8519 C   0  0  0  0  0  0  0  0  0  0  0  0
   -8.4762    5.6935  -17.6251 C   0  0  0  0  0  0  0  0  0  0  0  0
   -9.6151    4.8707  -17.6984 C   0  0  0  0  0  0  0  0  0  0  0  0
  -10.2228    4.5884  -18.7945 N   0  0  0  0  0  0  0  0  0  0  0  0
   -9.7843    5.1452  -19.9417 C   0  0  0  0  0  0  0  0  0  0  0  0
   -8.7052    5.9736  -19.9907 C   0  0  0  0  0  0  0  0  0  0  0  0
 14 13  4  0
 14 15  1  0
 16 14  4  0
 13 12  4  0
 17 22  4  0
 16 17  1  0
 17 18  4  0
 10  8  4  0
 10  2  4  0
 11 10  1  0
 18 19  4  0
 19 20  4  0
 22 21  4  0
  8  7  4  0
  7  4  4  0
  3  4  4  0
  2  3  4  0
  2  1  1  0
  4  5  1  0
  5  6  1  0
 21 20  4  0
  8  9  1  0
 16 11  4  0
 11 12  4  0
M  CHG  1   6   1
M  END
$$$$
