
     RDKit          3D

 22 24  0  0  0  0  0  0  0  0999 V2000
   -6.9060    7.3540  -21.6550 C   0  0  0  0  0  0  0  0  0  0  0  0
   -5.7910    7.7340  -22.5960 C   0  0  0  0  0  0  0  0  0  0  0  0
   -6.1220    8.1430  -23.8860 C   0  0  0  0  0  0  0  0  0  0  0  0
   -5.1590    8.5230  -24.8130 C   0  0  0  0  0  0  0  0  0  0  0  0
   -5.5430    8.9320  -26.2080 C   0  0  0  0  0  0  0  0  0  0  0  0
   -5.5670    7.7790  -27.1440 N   0  0  0  0  0  0  0  0  0  0  0  0
   -3.8290    8.5070  -24.4220 C   0  0  0  0  0  0  0  0  0  0  0  0
   -3.4330    8.1100  -23.1490 C   0  0  0  0  0  0  0  0  0  0  0  0
   -1.9630    8.1400  -22.8230 C   0  0  0  0  0  0  0  0  0  0  0  0
   -4.4300    7.7310  -22.2190 C   0  0  0  0  0  0  0  0  0  0  0  0
   -4.0430    7.2650  -20.8600 C   0  0  0  0  0  0  0  0  0  0  0  0
   -4.3380    5.9590  -20.4880 N   0  0  0  0  0  0  0  0  0  0  0  0
   -3.9350    5.8520  -19.2440 C   0  0  0  0  0  0  0  0  0  0  0  0
   -3.3330    6.9700  -18.7780 N   0  0  0  0  0  0  0  0  0  0  0  0
   -2.7850    7.1510  -17.4350 C   0  0  0  0  0  0  0  0  0  0  0  0
   -3.4300    7.9260  -19.8130 C   0  0  0  0  0  0  0  0  0  0  0  0
   -2.8880    9.3000  -19.7230 C   0  0  0  0  0  0  0  0  0  0  0  0
   -3.6670   10.3940  -20.0890 C   0  0  0  0  0  0  0  0  0  0  0  0
   -3.1140   11.6590  -20.0140 C   0  0  0  0  0  0  0  0  0  0  0  0
   -1.8450   11.8930  -19.6520 N   0  0  0  0  0  0  0  0  0  0  0  0
   -1.0960   10.8290  -19.3350 C   0  0  0  0  0  0  0  0  0  0  0  0
   -1.5620    9.5280  -19.3650 C   0  0  0  0  0  0  0  0  0  0  0  0
 14 13  1  0
 14 15  1  0
 16 14  1  0
 13 12  2  0
 17 22  2  0
 16 17  1  0
 17 18  1  0
 10  8  1  0
 10  2  2  0
 11 10  1  0
 18 19  2  0
 19 20  1  0
 22 21  1  0
  8  7  2  0
  7  4  1  0
  3  4  2  0
  2  3  1  0
  2  1  1  0
  4  5  1  0
  5  6  1  0
 21 20  2  0
  8  9  1  0
 16 11  2  0
 11 12  1  0
M  CHG  1   6   1
M  END
$$$$
