
     RDKit          3D

 24 27  0  0  0  0  0  0  0  0999 V2000
   -2.2320    8.3250  -23.0130 C   0  0  0  0  0  0  0  0  0  0  0  0
   -3.7020    8.0600  -22.9860 C   0  0  0  0  0  0  0  0  0  0  0  0
   -4.4200    8.3130  -24.0420 N   0  0  0  0  0  0  0  0  0  0  0  0
   -5.7610    7.9700  -23.6990 O   0  0  0  0  0  0  0  0  0  0  0  0
   -5.7860    7.5460  -22.4220 C   0  0  0  0  0  0  0  0  0  0  0  0
   -7.1100    7.1400  -21.8880 C   0  0  0  0  0  0  0  0  0  0  0  0
   -4.5160    7.5830  -21.9110 C   0  0  0  0  0  0  0  0  0  0  0  0
   -4.1010    7.2050  -20.5510 C   0  0  0  0  0  0  0  0  0  0  0  0
   -4.4650    5.9650  -20.0510 N   0  0  0  0  0  0  0  0  0  0  0  0
   -3.9780    5.9430  -18.8310 C   0  0  0  0  0  0  0  0  0  0  0  0
   -3.2740    7.0580  -18.5080 N   0  0  0  0  0  0  0  0  0  0  0  0
   -2.6550    7.3280  -17.2140 C   0  0  0  0  0  0  0  0  0  0  0  0
   -3.3580    7.9040  -19.6190 C   0  0  0  0  0  0  0  0  0  0  0  0
   -2.8000    9.2730  -19.6580 C   0  0  0  0  0  0  0  0  0  0  0  0
   -3.6660   10.3420  -19.7250 C   0  0  0  0  0  0  0  0  0  0  0  0
   -3.1500   11.6300  -19.7240 C   0  0  0  0  0  0  0  0  0  0  0  0
   -1.8590   11.9240  -19.6800 N   0  0  0  0  0  0  0  0  0  0  0  0
   -0.9720   10.8720  -19.6730 C   0  0  0  0  0  0  0  0  0  0  0  0
    0.4110   11.1710  -19.6370 C   0  0  0  0  0  0  0  0  0  0  0  0
    1.3010   10.1430  -19.5980 C   0  0  0  0  0  0  0  0  0  0  0  0
    2.6300   10.4260  -19.5210 F   0  0  0  0  0  0  0  0  0  0  0  0
    0.9290    8.8150  -19.6100 C   0  0  0  0  0  0  0  0  0  0  0  0
   -0.3980    8.5000  -19.6290 C   0  0  0  0  0  0  0  0  0  0  0  0
   -1.3910    9.5140  -19.6250 C   0  0  0  0  0  0  0  0  0  0  0  0
 24 23  2  0
 23 22  1  0
 24 18  1  0
 14 24  1  0
 18 19  2  0
 18 17  1  0
 15 16  1  0
 16 17  2  0
 13 14  1  0
 14 15  2  0
  7  2  1  0
  8  7  1  0
  7  5  2  0
  2  1  1  0
  2  3  2  0
  5  6  1  0
 22 20  2  0
 13  8  2  0
 13 11  1  0
  8  9  1  0
  9 10  2  0
 10 11  1  0
 11 12  1  0
  5  4  1  0
 20 19  1  0
 20 21  1  0
  3  4  1  0
M  END
$$$$
