
     RDKit          3D

 24 27  0  0  0  0  0  0  0  0999 V2000
   -6.8652    2.6081  -20.8344 C   0  0  0  0  0  0  0  0  0  0  0  0
   -7.9081    2.8516  -19.8484 C   0  0  0  0  0  0  0  0  0  0  0  0
   -8.6507    1.8643  -19.4281 N   0  0  0  0  0  0  0  0  0  0  0  0
   -9.9288    2.4371  -19.1164 O   0  0  0  0  0  0  0  0  0  0  0  0
   -9.8162    3.8144  -19.1545 C   0  0  0  0  0  0  0  0  0  0  0  0
  -11.0819    4.5668  -19.1508 C   0  0  0  0  0  0  0  0  0  0  0  0
   -8.5263    4.1026  -19.4866 C   0  0  0  0  0  0  0  0  0  0  0  0
   -7.9899    5.4549  -19.7787 C   0  0  0  0  0  0  0  0  0  0  0  0
   -8.7818    6.2747  -20.6493 N   0  0  0  0  0  0  0  0  0  0  0  0
   -7.9257    6.8578  -21.4264 C   0  0  0  0  0  0  0  0  0  0  0  0
   -6.6312    6.6876  -21.0157 N   0  0  0  0  0  0  0  0  0  0  0  0
   -5.4289    6.9001  -21.8566 C   0  0  0  0  0  0  0  0  0  0  0  0
   -6.7156    5.9104  -19.8508 C   0  0  0  0  0  0  0  0  0  0  0  0
   -5.6363    5.9713  -18.7485 C   0  0  0  0  0  0  0  0  0  0  0  0
   -5.0545    4.7660  -18.3628 C   0  0  0  0  0  0  0  0  0  0  0  0
   -3.6966    4.7228  -18.3486 C   0  0  0  0  0  0  0  0  0  0  0  0
   -2.9056    5.7909  -18.2846 N   0  0  0  0  0  0  0  0  0  0  0  0
   -3.5041    7.0151  -18.4454 C   0  0  0  0  0  0  0  0  0  0  0  0
   -2.6755    8.1688  -18.1980 C   0  0  0  0  0  0  0  0  0  0  0  0
   -3.3017    9.3145  -17.8129 C   0  0  0  0  0  0  0  0  0  0  0  0
   -2.5469   10.3564  -17.3965 F   0  0  0  0  0  0  0  0  0  0  0  0
   -4.6930    9.4673  -17.7647 C   0  0  0  0  0  0  0  0  0  0  0  0
   -5.4902    8.3744  -18.0592 C   0  0  0  0  0  0  0  0  0  0  0  0
   -4.9104    7.1744  -18.5636 C   0  0  0  0  0  0  0  0  0  0  0  0
 24 23  4  0
 23 22  4  0
 24 18  4  0
 14 24  4  0
 18 19  4  0
 18 17  4  0
 15 16  4  0
 16 17  4  0
 13 14  1  0
 14 15  4  0
  7  2  4  0
  8  7  1  0
  7  5  4  0
  2  1  1  0
  2  3  4  0
  5  6  1  0
 22 20  4  0
 13  8  4  0
 13 11  4  0
  8  9  4  0
  9 10  4  0
 10 11  4  0
 11 12  1  0
  5  4  4  0
 20 19  4  0
 20 21  1  0
  3  4  4  0
M  END
$$$$
