
     RDKit          3D

 27 30  0  0  0  0  0  0  0  0999 V2000
   -6.9740    7.1950  -20.9110 C   0  0  0  0  0  0  0  0  0  0  0  0
   -5.8750    7.3500  -21.9330 C   0  0  0  0  0  0  0  0  0  0  0  0
   -6.2190    7.7090  -23.2330 C   0  0  0  0  0  0  0  0  0  0  0  0
   -5.2680    7.8930  -24.2280 C   0  0  0  0  0  0  0  0  0  0  0  0
   -5.6800    8.2770  -25.6230 C   0  0  0  0  0  0  0  0  0  0  0  0
   -4.8050    9.3230  -26.2140 N   0  0  0  0  0  0  0  0  0  0  0  0
   -3.9340    7.6800  -23.9060 C   0  0  0  0  0  0  0  0  0  0  0  0
   -3.5290    7.2890  -22.6320 C   0  0  0  0  0  0  0  0  0  0  0  0
   -2.0550    7.0980  -22.3730 C   0  0  0  0  0  0  0  0  0  0  0  0
   -4.5130    7.1400  -21.6300 C   0  0  0  0  0  0  0  0  0  0  0  0
   -4.1220    6.7100  -20.2630 C   0  0  0  0  0  0  0  0  0  0  0  0
   -4.4750    5.4430  -19.8120 N   0  0  0  0  0  0  0  0  0  0  0  0
   -4.0120    5.3650  -18.5830 C   0  0  0  0  0  0  0  0  0  0  0  0
   -3.3460    6.4740  -18.1920 N   0  0  0  0  0  0  0  0  0  0  0  0
   -2.7260    6.6870  -16.8860 C   0  0  0  0  0  0  0  0  0  0  0  0
   -3.4170    7.3760  -19.2860 C   0  0  0  0  0  0  0  0  0  0  0  0
   -2.8400    8.7370  -19.2630 C   0  0  0  0  0  0  0  0  0  0  0  0
   -3.7010    9.8120  -19.2810 C   0  0  0  0  0  0  0  0  0  0  0  0
   -3.1820   11.0940  -19.1910 C   0  0  0  0  0  0  0  0  0  0  0  0
   -1.8900   11.3840  -19.1500 N   0  0  0  0  0  0  0  0  0  0  0  0
   -1.0060   10.3300  -19.1440 C   0  0  0  0  0  0  0  0  0  0  0  0
    0.3770   10.6230  -19.0860 C   0  0  0  0  0  0  0  0  0  0  0  0
    1.2670    9.5950  -19.0730 C   0  0  0  0  0  0  0  0  0  0  0  0
    2.5940    9.8790  -18.9580 F   0  0  0  0  0  0  0  0  0  0  0  0
    0.8930    8.2660  -19.0970 C   0  0  0  0  0  0  0  0  0  0  0  0
   -0.4330    7.9530  -19.1900 C   0  0  0  0  0  0  0  0  0  0  0  0
   -1.4270    8.9710  -19.1880 C   0  0  0  0  0  0  0  0  0  0  0  0
  3  4  2  0
  4  5  1  0
  4  7  1  0
  2  3  1  0
 10  2  2  0
  2  1  1  0
  5  6  1  0
 16 11  2  0
 11 10  1  0
 11 12  1  0
 17 16  1  0
 16 14  1  0
 14 15  1  0
 19 18  2  0
 20 19  1  0
 27 21  1  0
 21 22  1  0
 21 20  2  0
 27 26  1  0
 27 17  2  0
 26 25  2  0
 25 23  1  0
 23 22  2  0
 23 24  1  0
 10  8  1  0
 12 13  2  0
 13 14  1  0
 17 18  1  0
  8  9  1  0
  8  7  2  0
M  CHG  1   6   1
M  END
$$$$
