
     RDKit          3D

 29 31  0  0  0  0  0  0  0  0999 V2000
   -7.6970    7.7280   22.5560 C   0  0  0  0  0  0  0  0  0  0  0  0
   -8.6930    8.8210   23.0550 C   0  0  1  0  0  0  0  0  0  0  0  0
   -8.5240    9.0560   24.5790 C   0  0  0  0  0  0  0  0  0  0  0  0
   -8.4680   10.1420   22.2870 C   0  0  0  0  0  0  0  0  0  0  0  0
   -8.8020    9.9260   20.7910 C   0  0  0  0  0  0  0  0  0  0  0  0
   -8.5560   11.1620   19.9940 N   0  0  0  0  0  0  0  0  0  0  0  0
   -9.5510   12.0870   19.9340 C   0  0  0  0  0  0  0  0  0  0  0  0
  -10.7600   11.7750   20.4810 N   0  0  0  0  0  0  0  0  0  0  0  0
  -11.8140   12.6300   20.4480 C   0  0  0  0  0  0  0  0  0  0  0  0
  -13.0170   12.3190   20.9880 N   0  0  0  0  0  0  0  0  0  0  0  0
  -13.3190   11.4600   21.9960 C   0  0  0  0  0  0  0  0  0  0  0  0
  -14.6880   11.3650   22.3310 C   0  0  0  0  0  0  0  0  0  0  0  0
  -15.1190   10.3950   23.2450 C   0  0  0  0  0  0  0  0  0  0  0  0
  -16.4030   10.3490   23.5830 F   0  0  0  0  0  0  0  0  0  0  0  0
  -14.2050    9.5410   23.8540 C   0  0  0  0  0  0  0  0  0  0  0  0
  -14.6170    8.6050   24.8100 O   0  0  0  0  0  0  0  0  0  0  0  0
  -12.8450    9.6070   23.5060 C   0  0  0  0  0  0  0  0  0  0  0  0
  -11.9850    8.7840   24.0800 F   0  0  0  0  0  0  0  0  0  0  0  0
  -12.4120   10.5270   22.5400 C   0  0  0  0  0  0  0  0  0  0  0  0
  -11.7330   13.7350   19.6810 N   0  0  0  0  0  0  0  0  0  0  0  0
  -10.5710   14.1110   19.1030 C   0  0  0  0  0  0  0  0  0  0  0  0
   -9.4280   13.2820   19.1720 C   0  0  0  0  0  0  0  0  0  0  0  0
   -8.1340   13.6830   18.6820 N   0  0  0  0  0  0  0  0  0  0  0  0
   -7.9070   15.1130   18.2940 C   0  0  0  0  0  0  0  0  0  0  0  0
   -7.0850   12.8000   18.7510 C   0  0  0  0  0  0  0  0  0  0  0  0
   -5.9250   13.1150   18.4900 O   0  0  0  0  0  0  0  0  0  0  0  0
   -7.3280   11.3370   19.1830 C   0  0  1  0  0  0  0  0  0  0  0  0
   -6.0520   10.8070   19.9050 C   0  0  0  0  0  0  0  0  0  0  0  0
   -7.5410   10.5710   17.8230 C   0  0  0  0  0  0  0  0  0  0  0  0
  9 20  2  0
  8  9  1  0
  9 10  1  0
  2  1  1  6
  2  3  1  0
 27 25  1  0
 27 28  1  1
 27 29  1  0
  6 27  1  0
 25 23  1  0
 25 26  2  0
 19 17  2  0
 11 19  1  0
 17 15  1  0
 17 18  1  0
 13 15  2  0
 15 16  1  0
 12 13  1  0
 13 14  1  0
 11 12  2  0
 10 11  1  0
 23 24  1  0
 21 20  1  0
  7  8  2  0
  7 22  1  0
  6  7  1  0
 22 21  2  0
 22 23  1  0
  5  6  1  0
  4  5  1  0
  4  2  1  0
M  END
$$$$
