
     RDKit          3D

 19 19  0  0  0  0  0  0  0  0999 V2000
   17.8590   -5.8520  -16.0500 C   0  0  0  0  0  0  0  0  0  0  0  0
   18.8770   -5.2150  -16.9920 C   0  0  0  0  0  0  0  0  0  0  0  0
   20.0630   -4.6580  -16.2200 C   0  0  0  0  0  0  0  0  0  0  0  0
   19.6650   -3.3480  -15.5900 C   0  0  0  0  0  0  0  0  0  0  0  0
   19.9980   -2.2220  -16.4840 N   0  0  0  0  0  0  0  0  0  0  0  0
   19.5990   -1.0080  -16.1570 C   0  0  0  0  0  0  0  0  0  0  0  0
   18.8750   -0.8170  -15.1550 O   0  0  0  0  0  0  0  0  0  0  0  0
   19.9420    0.1410  -17.0210 C   0  0  0  0  0  0  0  0  0  0  0  0
   20.4710    1.2680  -16.3980 C   0  0  0  0  0  0  0  0  0  0  0  0
   20.7460    2.3980  -17.0810 C   0  0  0  0  0  0  0  0  0  0  0  0
   21.3730    3.8070  -16.1180 S   0  0  1  0  0  0  0  0  0  0  0  0
   21.7980    3.5200  -14.5430 N   0  0  0  0  0  0  0  0  0  0  0  0
   22.5820    4.2750  -16.8260 O   0  0  0  0  0  0  0  0  0  0  0  0
   20.3250    4.8330  -16.0780 O   0  0  0  0  0  0  0  0  0  0  0  0
   20.5730    2.4340  -18.4760 C   0  0  0  0  0  0  0  0  0  0  0  0
   20.9190    3.8790  -19.3740 Cl  0  0  0  0  0  0  0  0  0  0  0  0
   20.0770    1.3250  -19.1160 C   0  0  0  0  0  0  0  0  0  0  0  0
   19.7850    0.1760  -18.3870 C   0  0  0  0  0  0  0  0  0  0  0  0
   19.1520   -1.1880  -19.3180 Cl  0  0  0  0  0  0  0  0  0  0  0  0
  9  8  2  0
  9 10  1  0
  8  6  1  0
  8 18  1  0
 10 15  2  0
 10 11  1  0
 18 17  2  0
 17 15  1  0
  6  7  2  0
  6  5  1  0
  5  4  1  0
  4  3  1  0
  3  2  1  0
  2  1  1  0
 18 19  1  0
 15 16  1  0
 11 13  2  0
 11 14  2  0
 11 12  1  1
M  END
$$$$
