
     RDKit          3D

 17 17  0  0  0  0  0  0  0  0999 V2000
    9.8130   35.4570   45.4010 N   0  0  0  0  0  0  0  0  0  0  0  0
    9.0640   36.4410   45.8940 C   0  0  0  0  0  0  0  0  0  0  0  0
    8.3980   36.3200   46.9030 O   0  0  0  0  0  0  0  0  0  0  0  0
    9.0640   37.7540   45.1700 C   0  0  2  0  0  0  0  0  0  0  0  0
    7.8620   38.6340   45.5300 C   0  0  0  0  0  0  0  0  0  0  0  0
    6.5740   38.1680   44.8640 C   0  0  0  0  0  0  0  0  0  0  0  0
    6.7710   37.9920   43.3720 C   0  0  1  0  0  0  0  0  0  0  0  0
    7.1810   39.2680   42.7500 N   0  0  0  0  0  0  0  0  0  0  0  0
    6.3130   40.2500   43.0950 O   0  0  0  0  0  0  0  0  0  0  0  0
    6.6690   41.7480   42.9400 S   0  0  1  0  0  0  0  0  0  0  0  0
    7.3770   42.2770   44.1290 O   0  0  0  0  0  0  0  0  0  0  0  0
    7.5910   41.9030   41.7930 O   0  0  0  0  0  0  0  0  0  0  0  0
    5.4100   42.5130   42.7260 O   0  0  0  0  0  0  0  0  0  0  0  0
    7.8480   36.9390   43.1930 C   0  0  0  0  0  0  0  0  0  0  0  0
    9.0560   37.5410   43.7280 N   0  0  0  0  0  0  0  0  0  0  0  0
   10.1390   37.8770   43.0580 C   0  0  0  0  0  0  0  0  0  0  0  0
   11.0040   38.5670   43.5520 O   0  0  0  0  0  0  0  0  0  0  0  0
 17 16  2  0
 16 15  1  0
 15 14  1  0
 15  4  1  0
 14  7  1  0
  4  2  1  1
  4  5  1  0
  2  3  2  0
  2  1  1  0
  5  6  1  0
  6  7  1  0
  7  8  1  1
  8  9  1  0
  9 10  1  0
 10 11  2  0
 10 12  2  0
 10 13  1  6
M  CHG  1   8   1
M  END
$$$$
