
     RDKit          3D

 40 42  0  0  0  0  0  0  0  0999 V2000
   18.4624  -16.1215   29.3687 H   0  0  0  0  0  0  0  0  0  0  0  0
   18.7941  -15.7070   28.2436 N   0  0  0  0  0  0  0  0  0  0  0  0
   18.6377  -16.7341   27.4293 C   0  0  0  0  0  0  0  0  0  0  0  0
   18.9708  -18.0517   27.7297 N   0  0  0  0  0  0  0  0  0  0  0  0
   17.9153  -16.5788   26.1875 N   0  0  0  0  0  0  0  0  0  0  0  0
   18.6239  -16.0755   25.0334 C   0  0  0  0  0  0  0  0  0  0  0  0
   18.4797  -14.5787   24.8362 C   0  0  0  0  0  0  0  0  0  0  0  0
   18.2695  -14.2177   23.3865 C   0  0  0  0  0  0  0  0  0  0  0  0
   16.8059  -14.2899   22.8115 C   0  0  2  0  0  0  0  0  0  0  0  0
   16.7343  -15.3974   21.8493 N   0  0  0  0  0  0  0  0  0  0  0  0
   16.4864  -16.9366   22.3905 S   0  0  2  0  0  0  0  0  0  0  0  0
   17.6164  -17.6461   21.9478 O   0  0  0  0  0  0  0  0  0  0  0  0
   15.1824  -17.3761   21.9526 O   0  0  0  0  0  0  0  0  0  0  0  0
   16.5282  -16.8772   24.1358 C   0  0  0  0  0  0  0  0  0  0  0  0
   16.5676  -18.2610   24.7708 C   0  0  0  0  0  0  0  0  0  0  0  0
   16.6014  -18.4153   26.1527 C   0  0  0  0  0  0  0  0  0  0  0  0
   16.6025  -19.6633   26.7262 C   0  0  0  0  0  0  0  0  0  0  0  0
   16.6020  -20.8061   25.8813 C   0  0  0  0  0  0  0  0  0  0  0  0
   16.5953  -20.6470   24.5472 C   0  0  0  0  0  0  0  0  0  0  0  0
   16.6041  -19.3851   23.9797 C   0  0  0  0  0  0  0  0  0  0  0  0
   16.5245  -13.0310   21.9921 C   0  0  0  0  0  0  0  0  0  0  0  0
   15.5449  -12.3449   22.2215 O   0  0  0  0  0  0  0  0  0  0  0  0
   17.5229  -12.5776   21.1971 N   0  0  0  0  0  0  0  0  0  0  0  0
   18.5422  -13.3686   20.6340 C   0  0  0  0  0  0  0  0  0  0  0  0
   19.3212  -12.2912   19.7061 C   0  0  0  0  0  0  0  0  0  0  0  0
   18.2194  -11.3427   19.3738 C   0  0  0  0  0  0  0  0  0  0  0  0
   17.3555  -11.2226   20.6201 C   0  0  1  0  0  0  0  0  0  0  0  0
   15.9277  -10.8818   20.2678 C   0  0  0  0  0  0  0  0  0  0  0  0
   15.1136  -11.8053   20.0393 O   0  0  0  0  0  0  0  0  0  0  0  0
   15.5014   -9.6641   20.5769 N   0  0  0  0  0  0  0  0  0  0  0  0
   14.1552   -9.2449   20.4829 C   0  0  0  0  0  0  0  0  0  0  0  0
   13.4430   -9.3677   21.8384 C   0  0  0  0  0  0  0  0  0  0  0  0
   13.3335   -8.2463   22.6663 C   0  0  0  0  0  0  0  0  0  0  0  0
   12.4700   -8.2436   23.7573 C   0  0  0  0  0  0  0  0  0  0  0  0
   12.2554   -6.8310   24.6490 Cl  0  0  0  0  0  0  0  0  0  0  0  0
   11.7809   -9.3929   24.0821 C   0  0  0  0  0  0  0  0  0  0  0  0
   11.9433  -10.5027   23.2981 C   0  0  0  0  0  0  0  0  0  0  0  0
   12.7578  -10.5184   22.1570 C   0  0  0  0  0  0  0  0  0  0  0  0
   12.8342  -11.7700   21.3122 C   0  0  0  0  0  0  0  0  0  0  0  0
   12.7473  -13.0445   22.0862 N   0  0  0  0  0  0  0  0  0  0  0  0
 21 22  2  0
 28 29  2  0
 15 20  4  0
 20 19  4  0
 27 28  1  6
 27 26  1  0
 23 27  1  0
 32 33  4  0
 32 38  4  0
 31 32  1  0
 34 35  1  0
 33 34  4  0
 34 36  4  0
 37 36  4  0
 38 37  4  0
 38 39  1  0
 39 40  1  0
 30 31  1  0
 28 30  1  0
 25 26  1  0
 24 25  1  0
 23 24  1  0
 21 23  1  0
  9 21  1  0
  9  8  1  6
 10  9  1  0
  8  7  1  0
  7  6  1  0
  6  5  1  0
  5  3  1  0
  3  4  1  0
  3  2  2  0
 11 10  1  0
 11 12  2  0
 11 13  2  0
 11 14  1  6
 14 15  1  0
 15 16  4  0
 16 17  4  0
 17 18  4  0
 18 19  4  0
  2  1  1  0
M  CHG  1  40   1
M  END
$$$$
