
     RDKit          3D

 19 21  0  0  0  0  0  0  0  0999 V2000
   93.4360   92.7050  -41.5650 C   0  0  0  0  0  0  0  0  0  0  0  0
   91.9130   92.9630  -41.5850 C   0  0  0  0  0  0  0  0  0  0  0  0
   91.5850   94.1050  -42.3990 N   0  0  0  0  0  0  0  0  0  0  0  0
   91.4890   95.4030  -42.0030 C   0  0  0  0  0  0  0  0  0  0  0  0
   91.6880   95.9950  -40.7410 C   0  0  0  0  0  0  0  0  0  0  0  0
   91.5400   97.3960  -40.6040 C   0  0  0  0  0  0  0  0  0  0  0  0
   91.1800   98.2060  -41.7150 C   0  0  0  0  0  0  0  0  0  0  0  0
   91.0290   99.6780  -41.5770 C   0  0  0  0  0  0  0  0  0  0  0  0
   89.7230  100.0560  -41.0030 N   0  0  0  0  0  0  0  0  0  0  0  0
   89.5710  101.5110  -40.7890 C   0  0  0  0  0  0  0  0  0  0  0  0
   90.9920   97.5980  -42.9770 C   0  0  0  0  0  0  0  0  0  0  0  0
   91.1440   96.2020  -43.1070 C   0  0  0  0  0  0  0  0  0  0  0  0
   91.0200   95.3400  -44.1970 C   0  0  0  0  0  0  0  0  0  0  0  0
   90.7020   95.5470  -45.5570 C   0  0  0  0  0  0  0  0  0  0  0  0
   90.6630   94.4170  -46.4140 C   0  0  0  0  0  0  0  0  0  0  0  0
   90.9460   93.1170  -45.9260 C   0  0  0  0  0  0  0  0  0  0  0  0
   90.9050   91.6120  -47.0310 Br  0  0  0  0  0  0  0  0  0  0  0  0
   91.2670   92.9390  -44.5720 C   0  0  0  0  0  0  0  0  0  0  0  0
   91.2980   94.0550  -43.7200 C   0  0  0  0  0  0  0  0  0  0  0  0
 14 15  2  0
 14 13  1  0
 15 16  1  0
 16 18  2  0
 16 17  1  0
 18 19  1  0
 19 13  2  0
 19  3  1  0
 13 12  1  0
  3  4  1  0
  3  2  1  0
 12  4  2  0
 12 11  1  0
  4  5  1  0
 11  7  2  0
  5  6  2  0
  6  7  1  0
  7  8  1  0
  2  1  1  0
  8  9  1  0
  9 10  1  0
M  CHG  1   9   1
M  END
$$$$
