
     RDKit          3D

 23 26  0  0  0  0  0  0  0  0999 V2000
   91.8361   91.2899  -41.7926 C   0  0  0  0  0  0  0  0  0  0  0  0
   92.1973   92.6790  -41.2285 C   0  0  0  0  0  0  0  0  0  0  0  0
   91.5358   93.7604  -42.0216 N   0  0  0  0  0  0  0  0  0  0  0  0
   91.3679   95.0638  -41.5908 C   0  0  0  0  0  0  0  0  0  0  0  0
   91.4040   95.5764  -40.3015 C   0  0  0  0  0  0  0  0  0  0  0  0
   91.2893   96.9466  -40.1195 C   0  0  0  0  0  0  0  0  0  0  0  0
   91.2485   97.8097  -41.2514 C   0  0  0  0  0  0  0  0  0  0  0  0
   91.1534   99.2849  -41.0303 C   0  0  0  0  0  0  0  0  0  0  0  0
   89.7498   99.7861  -41.0724 N   0  0  0  0  0  0  0  0  0  0  0  0
   89.7307  101.2755  -41.0655 C   0  0  0  0  0  0  0  0  0  0  0  0
   91.2925   97.2771  -42.5290 C   0  0  0  0  0  0  0  0  0  0  0  0
   91.3137   95.9113  -42.7015 C   0  0  0  0  0  0  0  0  0  0  0  0
   91.3418   95.0358  -43.8824 C   0  0  0  0  0  0  0  0  0  0  0  0
   91.3615   95.2744  -45.2390 C   0  0  0  0  0  0  0  0  0  0  0  0
   91.4059   94.1745  -46.1240 C   0  0  0  0  0  0  0  0  0  0  0  0
   91.2587   92.8706  -45.6276 C   0  0  0  0  0  0  0  0  0  0  0  0
   90.6777   91.8383  -46.4854 C   0  0  0  0  0  0  0  0  0  0  0  0
   89.3378   91.4968  -46.5588 C   0  0  0  0  0  0  0  0  0  0  0  0
   88.9080   91.0901  -47.8929 C   0  0  0  0  0  0  0  0  0  0  0  0
   90.0073   90.9379  -48.6907 C   0  0  0  0  0  0  0  0  0  0  0  0
   91.4704   91.2927  -47.8900 S   0  0  0  0  0  0  0  0  0  0  0  0
   91.4020   92.6464  -44.2743 C   0  0  0  0  0  0  0  0  0  0  0  0
   91.4454   93.7515  -43.4073 C   0  0  0  0  0  0  0  0  0  0  0  0
  3  4  4  0
  3 23  4  0
  3  2  1  0
  4 12  4  0
  4  5  4  0
 12 11  4  0
 12 13  4  0
 11  7  4  0
  7  6  4  0
  7  8  1  0
  6  5  4  0
  8  9  1  0
 23 13  4  0
 23 22  4  0
 13 14  4  0
 14 15  4  0
 15 16  4  0
 16 22  4  0
 16 17  1  0
  2  1  1  0
 17 18  4  0
 17 21  4  0
 18 19  4  0
 19 20  4  0
 20 21  4  0
  9 10  1  0
M  CHG  1   9   1
M  END
$$$$
