
     RDKit          3D

 23 26  0  0  0  0  0  0  0  0999 V2000
   93.2700   92.9100  -41.5790 C   0  0  0  0  0  0  0  0  0  0  0  0
   91.7790   93.1220  -41.5860 C   0  0  0  0  0  0  0  0  0  0  0  0
   91.3870   94.2720  -42.3980 N   0  0  0  0  0  0  0  0  0  0  0  0
   91.2850   95.5810  -41.9540 C   0  0  0  0  0  0  0  0  0  0  0  0
   91.4760   96.1030  -40.6800 C   0  0  0  0  0  0  0  0  0  0  0  0
   91.3680   97.4740  -40.5040 C   0  0  0  0  0  0  0  0  0  0  0  0
   91.0750   98.3260  -41.5680 C   0  0  0  0  0  0  0  0  0  0  0  0
   91.0170   99.8190  -41.3590 C   0  0  0  0  0  0  0  0  0  0  0  0
   89.6720  100.2930  -41.0240 N   0  0  0  0  0  0  0  0  0  0  0  0
   89.6780  101.7050  -40.6310 C   0  0  0  0  0  0  0  0  0  0  0  0
   90.8650   97.7830  -42.8320 C   0  0  0  0  0  0  0  0  0  0  0  0
   90.9660   96.4120  -43.0370 C   0  0  0  0  0  0  0  0  0  0  0  0
   90.8480   95.5520  -44.1980 C   0  0  0  0  0  0  0  0  0  0  0  0
   90.5540   95.7650  -45.5410 C   0  0  0  0  0  0  0  0  0  0  0  0
   90.5520   94.6920  -46.4170 C   0  0  0  0  0  0  0  0  0  0  0  0
   90.8470   93.3960  -45.9790 C   0  0  0  0  0  0  0  0  0  0  0  0
   90.8940   92.2830  -46.9400 C   0  0  0  0  0  0  0  0  0  0  0  0
   90.8020   92.3440  -48.3180 C   0  0  0  0  0  0  0  0  0  0  0  0
   90.9150   91.0560  -48.9340 C   0  0  0  0  0  0  0  0  0  0  0  0
   91.0810   90.0700  -48.0350 C   0  0  0  0  0  0  0  0  0  0  0  0
   91.1090   90.6600  -46.4360 S   0  0  0  0  0  0  0  0  0  0  0  0
   91.1310   93.1700  -44.6330 C   0  0  0  0  0  0  0  0  0  0  0  0
   91.1230   94.2500  -43.7600 C   0  0  0  0  0  0  0  0  0  0  0  0
  3  4  1  0
  3 23  1  0
  3  2  1  0
  4 12  2  0
  4  5  1  0
 12 11  1  0
 12 13  1  0
 11  7  2  0
  7  6  1  0
  7  8  1  0
  6  5  2  0
  8  9  1  0
 23 13  2  0
 23 22  1  0
 13 14  1  0
 14 15  2  0
 15 16  1  0
 16 22  2  0
 16 17  1  0
  2  1  1  0
 17 18  2  0
 17 21  1  0
 18 19  1  0
 19 20  2  0
 20 21  1  0
  9 10  1  0
M  CHG  1   9   1
M  END
$$$$
