
     RDKit          3D

 23 26  0  0  0  0  0  0  0  0999 V2000
   93.2760   92.9050  -41.6730 C   0  0  0  0  0  0  0  0  0  0  0  0
   91.7740   93.1090  -41.7820 C   0  0  0  0  0  0  0  0  0  0  0  0
   91.4650   94.3150  -42.5340 N   0  0  0  0  0  0  0  0  0  0  0  0
   91.4000   95.6020  -42.0250 C   0  0  0  0  0  0  0  0  0  0  0  0
   91.5900   96.0910  -40.7210 C   0  0  0  0  0  0  0  0  0  0  0  0
   91.4610   97.4690  -40.5190 C   0  0  0  0  0  0  0  0  0  0  0  0
   91.1380   98.3380  -41.5740 C   0  0  0  0  0  0  0  0  0  0  0  0
   91.0100   99.8170  -41.3540 C   0  0  0  0  0  0  0  0  0  0  0  0
   89.6380  100.2700  -40.9930 N   0  0  0  0  0  0  0  0  0  0  0  0
   89.5870  101.7090  -40.6270 C   0  0  0  0  0  0  0  0  0  0  0  0
   90.9620   97.8260  -42.8680 C   0  0  0  0  0  0  0  0  0  0  0  0
   91.0880   96.4440  -43.0960 C   0  0  0  0  0  0  0  0  0  0  0  0
   90.9700   95.6330  -44.2630 C   0  0  0  0  0  0  0  0  0  0  0  0
   90.6800   95.9110  -45.6100 C   0  0  0  0  0  0  0  0  0  0  0  0
   90.6380   94.8470  -46.5280 C   0  0  0  0  0  0  0  0  0  0  0  0
   90.8780   93.5210  -46.1340 C   0  0  0  0  0  0  0  0  0  0  0  0
   90.8560   92.4250  -47.0810 C   0  0  0  0  0  0  0  0  0  0  0  0
   90.4480   92.3570  -48.4280 C   0  0  0  0  0  0  0  0  0  0  0  0
   90.6210   91.1400  -48.9490 N   0  0  0  0  0  0  0  0  0  0  0  0
   91.1650   90.3750  -47.9230 O   0  0  0  0  0  0  0  0  0  0  0  0
   91.3080   91.1520  -46.8170 C   0  0  0  0  0  0  0  0  0  0  0  0
   91.1810   93.2470  -44.7930 C   0  0  0  0  0  0  0  0  0  0  0  0
   91.2120   94.3130  -43.8880 C   0  0  0  0  0  0  0  0  0  0  0  0
 23  3  1  0
  3  4  1  0
  3  2  1  0
  8  9  1  0
  9 10  1  0
 22 23  2  0
 16 22  1  0
 23 13  1  0
 13 12  1  0
 13 14  2  0
 12  4  2  0
  4  5  1  0
 12 11  1  0
 11  7  2  0
  7  6  1  0
  7  8  1  0
  2  1  1  0
 17 18  1  0
 17 16  1  0
 17 21  2  0
 18 19  2  0
 14 15  1  0
 15 16  2  0
  6  5  2  0
 21 20  1  0
 20 19  1  0
M  CHG  1   9   1
M  END
$$$$
