
     RDKit          3D

 24 27  0  0  0  0  0  0  0  0999 V2000
   92.1115   91.2206  -41.4614 C   0  0  0  0  0  0  0  0  0  0  0  0
   92.4486   92.6470  -40.9423 C   0  0  0  0  0  0  0  0  0  0  0  0
   91.7952   93.6730  -41.7819 N   0  0  0  0  0  0  0  0  0  0  0  0
   91.5134   94.9930  -41.3967 C   0  0  0  0  0  0  0  0  0  0  0  0
   91.5448   95.6277  -40.0892 C   0  0  0  0  0  0  0  0  0  0  0  0
   91.4864   97.0034  -40.0319 C   0  0  0  0  0  0  0  0  0  0  0  0
   91.4524   97.7868  -41.2051 C   0  0  0  0  0  0  0  0  0  0  0  0
   91.4861   99.3357  -41.0811 C   0  0  0  0  0  0  0  0  0  0  0  0
   90.1303   99.9164  -41.0376 N   0  0  0  0  0  0  0  0  0  0  0  0
   90.1339  101.3712  -41.0819 C   0  0  0  0  0  0  0  0  0  0  0  0
   91.4768   97.2006  -42.4683 C   0  0  0  0  0  0  0  0  0  0  0  0
   91.4921   95.8034  -42.5527 C   0  0  0  0  0  0  0  0  0  0  0  0
   91.5363   94.9148  -43.6516 C   0  0  0  0  0  0  0  0  0  0  0  0
   91.5360   95.0638  -45.0899 C   0  0  0  0  0  0  0  0  0  0  0  0
   91.5673   93.9032  -45.9059 C   0  0  0  0  0  0  0  0  0  0  0  0
   91.6029   92.6318  -45.3792 C   0  0  0  0  0  0  0  0  0  0  0  0
   91.2699   91.4771  -46.2540 C   0  0  0  0  0  0  0  0  0  0  0  0
   92.0446   90.9346  -47.2811 C   0  0  0  0  0  0  0  0  0  0  0  0
   91.2839   90.6104  -48.4132 C   0  0  0  0  0  0  0  0  0  0  0  0
   89.9164   90.6363  -48.1853 C   0  0  0  0  0  0  0  0  0  0  0  0
   88.8096   90.6520  -49.2346 C   0  0  0  0  0  0  0  0  0  0  0  0
   89.5973   91.0542  -46.5144 S   0  0  0  0  0  0  0  0  0  0  0  0
   91.6426   92.4613  -43.9876 C   0  0  0  0  0  0  0  0  0  0  0  0
   91.6344   93.5753  -43.1230 C   0  0  0  0  0  0  0  0  0  0  0  0
  3  4  4  0
  3 24  4  0
  3  2  1  0
  4 12  4  0
  4  5  4  0
 12 11  4  0
 12 13  4  0
 11  7  4  0
  7  6  4  0
  7  8  1  0
  6  5  4  0
  8  9  1  0
 24 13  4  0
 24 23  4  0
 13 14  4  0
 14 15  4  0
 15 16  4  0
 16 23  4  0
 16 17  1  0
  2  1  1  0
 17 18  4  0
 17 22  4  0
 18 19  4  0
 19 20  4  0
 20 22  4  0
 20 21  1  0
  9 10  1  0
M  CHG  1   9   1
M  END
$$$$
