
     RDKit          3D

 24 27  0  0  0  0  0  0  0  0999 V2000
   92.2549   91.2095  -41.6686 C   0  0  0  0  0  0  0  0  0  0  0  0
   92.6516   92.5504  -41.2185 C   0  0  0  0  0  0  0  0  0  0  0  0
   92.0005   93.6372  -41.8941 N   0  0  0  0  0  0  0  0  0  0  0  0
   91.7159   94.9113  -41.3684 C   0  0  0  0  0  0  0  0  0  0  0  0
   91.6578   95.3339  -40.0123 C   0  0  0  0  0  0  0  0  0  0  0  0
   91.6160   96.7241  -39.7367 C   0  0  0  0  0  0  0  0  0  0  0  0
   91.5879   97.6720  -40.7902 C   0  0  0  0  0  0  0  0  0  0  0  0
   91.7026   99.1436  -40.4809 C   0  0  0  0  0  0  0  0  0  0  0  0
   90.4259   99.8504  -40.8298 N   0  0  0  0  0  0  0  0  0  0  0  0
   90.5808  101.3276  -40.8283 C   0  0  0  0  0  0  0  0  0  0  0  0
   91.6201   97.2400  -42.1308 C   0  0  0  0  0  0  0  0  0  0  0  0
   91.6880   95.8525  -42.4251 C   0  0  0  0  0  0  0  0  0  0  0  0
   91.7176   95.0895  -43.6417 C   0  0  0  0  0  0  0  0  0  0  0  0
   91.7260   95.3985  -44.9893 C   0  0  0  0  0  0  0  0  0  0  0  0
   91.6712   94.3806  -45.9390 C   0  0  0  0  0  0  0  0  0  0  0  0
   91.6418   93.0118  -45.5442 C   0  0  0  0  0  0  0  0  0  0  0  0
   91.0420   92.0387  -46.5033 C   0  0  0  0  0  0  0  0  0  0  0  0
   90.0353   92.1926  -47.3859 C   0  0  0  0  0  0  0  0  0  0  0  0
   89.8497   91.1123  -48.2842 C   0  0  0  0  0  0  0  0  0  0  0  0
   89.1123   91.1509  -49.5766 C   0  0  0  0  0  0  0  0  0  0  0  0
   90.6607   90.0376  -47.9169 C   0  0  0  0  0  0  0  0  0  0  0  0
   91.7918   90.4354  -46.6867 S   0  0  0  0  0  0  0  0  0  0  0  0
   91.8109   92.7056  -44.2185 C   0  0  0  0  0  0  0  0  0  0  0  0
   91.8236   93.7154  -43.2471 C   0  0  0  0  0  0  0  0  0  0  0  0
  3  4  4  0
  3 24  4  0
  3  2  1  0
  4 12  4  0
  4  5  4  0
 12 11  4  0
 12 13  4  0
 11  7  4  0
  7  6  4  0
  7  8  1  0
  6  5  4  0
  8  9  1  0
 24 13  4  0
 24 23  4  0
 13 14  4  0
 14 15  4  0
 15 16  4  0
 16 23  4  0
 16 17  1  0
  2  1  1  0
 17 18  4  0
 17 22  4  0
 18 19  4  0
 19 21  4  0
 19 20  1  0
 21 22  4  0
  9 10  1  0
M  CHG  1   9   1
M  END
$$$$
