
     RDKit          3D

 24 28  0  0  0  0  0  0  0  0999 V2000
  -18.1944  -29.5591  -16.5669 O   0  0  0  0  0  0  0  0  0  0  0  0
  -18.9938  -28.7048  -17.0802 C   0  0  0  0  0  0  0  0  0  0  0  0
  -20.2924  -28.6200  -16.7260 N   0  0  0  0  0  0  0  0  0  0  0  0
  -20.6345  -27.2123  -16.7065 C   0  0  1  0  0  0  0  0  0  0  0  0
  -20.8912  -26.6786  -15.3424 C   0  0  0  0  0  0  0  0  0  0  0  0
  -21.0173  -27.3668  -14.0528 C   0  0  0  0  0  0  0  0  0  0  0  0
  -20.8007  -28.7968  -13.8363 C   0  0  1  0  0  0  0  0  0  0  0  0
  -21.3674  -29.6354  -14.9526 C   0  0  0  0  0  0  0  0  0  0  0  0
  -20.1978  -29.7266  -15.9782 C   0  0  0  0  0  0  0  0  0  0  0  0
  -18.9311  -29.4811  -15.1691 C   0  0  0  0  0  0  0  0  0  0  0  0
  -19.3656  -29.0918  -13.7912 N   0  0  0  0  0  4  0  0  0  0  0  0
  -21.3950  -26.4535  -13.1154 N   0  0  0  0  0  0  0  0  0  0  0  0
  -21.4942  -25.2144  -13.6211 C   0  0  0  0  0  0  0  0  0  0  0  0
  -21.5226  -23.9710  -13.0057 C   0  0  0  0  0  0  0  0  0  0  0  0
  -21.4911  -22.8198  -13.7989 C   0  0  0  0  0  0  0  0  0  0  0  0
  -21.3892  -22.8802  -15.2108 C   0  0  0  0  0  0  0  0  0  0  0  0
  -21.3134  -24.1148  -15.8585 C   0  0  0  0  0  0  0  0  0  0  0  0
  -21.2836  -25.2564  -15.1063 C   0  0  0  0  0  0  0  0  0  0  0  0
  -19.5685  -26.5638  -17.4718 C   0  0  0  0  0  0  0  0  0  0  0  0
  -19.5643  -25.3119  -18.0921 C   0  0  0  0  0  0  0  0  0  0  0  0
  -18.7089  -25.1484  -19.2086 C   0  0  0  0  0  0  0  0  0  0  0  0
  -17.7326  -26.1310  -19.5120 C   0  0  0  0  0  0  0  0  0  0  0  0
  -17.5586  -27.2333  -18.7558 C   0  0  0  0  0  0  0  0  0  0  0  0
  -18.4799  -27.5134  -17.7833 C   0  0  0  0  0  0  0  0  0  0  0  0
 12 13  4  0
  6 12  4  0
 22 23  4  0
 24 23  4  0
 21 22  4  0
 20 21  4  0
 19 20  4  0
  5 18  4  0
  4  5  1  6
  6  5  4  0
 18 13  4  0
 13 14  4  0
 16 15  4  0
 17 16  4  0
 18 17  4  0
  7  8  1  0
  8  9  1  0
  3  2  1  0
  4  3  1  0
  2  1  2  0
  2 24  1  0
  4 19  1  0
 14 15  4  0
  7  6  1  6
  7 11  1  0
  9 10  1  0
 10 11  1  0
 19 24  4  0
M  CHG  1  11   1
M  END
$$$$
