
     RDKit          3D

 24 28  0  0  0  0  0  0  0  0999 V2000
  -23.6400  -26.2770  -20.5610 O   0  0  0  0  0  0  0  0  0  0  0  0
  -22.7290  -26.5770  -19.7060 C   0  0  0  0  0  0  0  0  0  0  0  0
  -23.0110  -27.0460  -18.4690 N   0  0  0  0  0  0  0  0  0  0  0  0
  -21.7220  -27.2840  -17.7850 C   0  0  2  0  0  0  0  0  0  0  0  0
  -21.6830  -26.5800  -16.4700 C   0  0  0  0  0  0  0  0  0  0  0  0
  -21.7790  -27.0720  -15.0780 C   0  0  0  0  0  0  0  0  0  0  0  0
  -21.9630  -28.4840  -14.6780 C   0  0  1  0  0  0  0  0  0  0  0  0
  -20.9130  -28.9320  -13.6820 C   0  0  0  0  0  0  0  0  0  0  0  0
  -21.6290  -29.9600  -12.8160 C   0  0  0  0  0  0  0  0  0  0  0  0
  -23.1170  -29.6580  -12.9410 C   0  0  0  0  0  0  0  0  0  0  0  0
  -23.2670  -28.6320  -13.9960 N   0  0  0  0  0  4  0  0  0  0  0  0
  -21.7010  -26.0070  -14.2440 N   0  0  0  0  0  0  0  0  0  0  0  0
  -21.5450  -24.8390  -14.9120 C   0  0  0  0  0  0  0  0  0  0  0  0
  -21.4130  -23.5190  -14.4870 C   0  0  0  0  0  0  0  0  0  0  0  0
  -21.2740  -22.5050  -15.4360 C   0  0  0  0  0  0  0  0  0  0  0  0
  -21.2570  -22.7770  -16.8070 C   0  0  0  0  0  0  0  0  0  0  0  0
  -21.3850  -24.0800  -17.2910 C   0  0  0  0  0  0  0  0  0  0  0  0
  -21.5290  -25.1090  -16.3690 C   0  0  0  0  0  0  0  0  0  0  0  0
  -20.6910  -26.8890  -18.7460 C   0  0  0  0  0  0  0  0  0  0  0  0
  -19.3180  -26.9220  -18.6060 C   0  0  0  0  0  0  0  0  0  0  0  0
  -18.5500  -26.4950  -19.6920 C   0  0  0  0  0  0  0  0  0  0  0  0
  -19.1370  -26.0550  -20.8850 C   0  0  0  0  0  0  0  0  0  0  0  0
  -20.5180  -26.0190  -21.0690 C   0  0  0  0  0  0  0  0  0  0  0  0
  -21.2860  -26.4360  -20.0010 C   0  0  0  0  0  0  0  0  0  0  0  0
 12 13  1  0
  6 12  1  0
 22 23  2  0
 24 23  1  0
 21 22  1  0
 20 21  2  0
 19 20  1  0
  5 18  1  0
  4  5  1  1
  6  5  2  0
 18 13  2  0
 13 14  1  0
 16 15  1  0
 17 16  2  0
 18 17  1  0
  7  8  1  0
  8  9  1  0
  3  2  1  0
  4  3  1  0
  2  1  2  0
  2 24  1  0
  4 19  1  0
 14 15  2  0
  7  6  1  1
  7 11  1  0
  9 10  1  0
 10 11  1  0
 19 24  2  0
M  CHG  1  11   1
M  END
$$$$
