
     RDKit          3D

 24 27  0  0  0  0  0  0  0  0999 V2000
   17.2300   33.4110   16.4970 C   0  0  0  0  0  0  0  0  0  0  0  0
   17.2360   34.6460   15.7070 N   0  0  1  0  0  4  0  0  0  0  0  0
   17.8050   35.7400   16.4900 C   0  0  0  0  0  0  0  0  0  0  0  0
   17.9740   34.4650   14.4520 C   0  0  0  0  0  0  0  0  0  0  0  0
   17.3250   33.4890   13.5160 C   0  0  0  0  0  0  0  0  0  0  0  0
   16.0980   33.7520   12.9480 N   0  0  0  0  0  0  0  0  0  0  0  0
   15.6990   32.6490   12.2150 C   0  0  0  0  0  0  0  0  0  0  0  0
   14.5540   32.4410   11.4490 C   0  0  0  0  0  0  0  0  0  0  0  0
   14.4130   31.2220   10.7940 C   0  0  0  0  0  0  0  0  0  0  0  0
   15.3800   30.2310   10.9200 C   0  0  0  0  0  0  0  0  0  0  0  0
   16.5330   30.4530   11.6690 C   0  0  0  0  0  0  0  0  0  0  0  0
   16.7010   31.6650   12.3390 C   0  0  0  0  0  0  0  0  0  0  0  0
   17.7330   32.2300   13.1760 C   0  0  0  0  0  0  0  0  0  0  0  0
   18.9880   31.5250   13.6560 C   0  0  1  0  0  0  0  0  0  0  0  0
   18.7120   30.2150   14.2340 N   0  0  0  0  0  0  0  0  0  0  0  0
   19.3520   29.2020   13.6250 C   0  0  0  0  0  0  0  0  0  0  0  0
   19.2560   28.0130   13.9090 O   0  0  0  0  0  0  0  0  0  0  0  0
   20.1440   29.8050   12.5350 C   0  0  0  0  0  0  0  0  0  0  0  0
   20.9540   29.2180   11.5640 C   0  0  0  0  0  0  0  0  0  0  0  0
   21.5860   30.0220   10.6300 C   0  0  0  0  0  0  0  0  0  0  0  0
   21.4080   31.4020   10.6690 C   0  0  0  0  0  0  0  0  0  0  0  0
   22.0560   32.2080    9.7940 O   0  0  0  0  0  0  0  0  0  0  0  0
   20.5990   31.9840   11.6360 C   0  0  0  0  0  0  0  0  0  0  0  0
   19.9470   31.1740   12.5600 C   0  0  0  0  0  0  0  0  0  0  0  0
 24 23  2  0
 23 21  1  0
 24 18  1  0
 14 24  1  0
 18 19  2  0
 18 16  1  0
 14 13  1  6
 14 15  1  0
 13 12  1  0
 12  7  1  0
 12 11  2  0
  7  8  2  0
  8  9  1  0
  5  4  1  0
  4  2  1  0
  2  1  1  1
 19 20  1  0
 13  5  2  0
  5  6  1  0
  7  6  1  0
 11 10  1  0
  9 10  2  0
 20 21  2  0
  2  3  1  0
 21 22  1  0
 16 15  1  0
 16 17  2  0
M  CHG  1   2   1
M  END
$$$$
