
     RDKit          3D

 39 45  0  0  0  0  0  0  0  0999 V2000
   12.6646   16.7668  -16.4608 O   0  0  0  0  0  0  0  0  0  0  0  0
   12.7839   16.3366  -17.6170 C   0  0  0  0  0  0  0  0  0  0  0  0
   12.7287   15.0156  -17.8699 N   0  0  0  0  0  0  0  0  0  0  0  0
   13.6132   14.6630  -19.0015 C   0  0  2  0  0  0  0  0  0  0  0  0
   14.5170   13.5276  -18.5831 C   0  0  0  0  0  0  0  0  0  0  0  0
   15.1537   12.7082  -19.4635 C   0  0  0  0  0  0  0  0  0  0  0  0
   14.7227   12.4757  -20.8836 C   0  0  0  0  0  0  0  0  0  0  0  0
   13.2590   12.6598  -20.9491 N   0  0  0  0  0  4  0  0  0  0  0  0
   12.7032   13.7078  -20.1043 C   0  0  0  0  0  0  0  0  0  0  0  0
   11.2462   13.8569  -20.4122 C   0  0  0  0  0  0  0  0  0  0  0  0
   10.3604   13.0152  -19.7926 C   0  0  0  0  0  0  0  0  0  0  0  0
    9.5215   12.2232  -20.5576 C   0  0  0  0  0  0  0  0  0  0  0  0
    9.5138   12.4146  -21.9697 C   0  0  0  0  0  0  0  0  0  0  0  0
    9.3572   11.5079  -23.1238 C   0  0  0  0  0  0  0  0  0  0  0  0
    9.7683   12.1374  -24.1948 C   0  0  0  0  0  0  0  0  0  0  0  0
   10.0456   13.5159  -23.8698 N   0  0  0  0  0  0  0  0  0  0  0  0
    9.4940   14.6242  -24.7021 C   0  0  0  0  0  0  0  0  0  0  0  0
    8.1010   14.9867  -24.2921 C   0  0  0  0  0  0  0  0  0  0  0  0
    7.8394   15.2528  -22.9247 C   0  0  0  0  0  0  0  0  0  0  0  0
    6.8499   14.5763  -22.2784 C   0  0  0  0  0  0  0  0  0  0  0  0
    5.8842   13.8894  -22.9807 C   0  0  0  0  0  0  0  0  0  0  0  0
    5.9580   13.8199  -24.3698 C   0  0  0  0  0  0  0  0  0  0  0  0
    6.9991   14.5139  -25.0136 C   0  0  0  0  0  0  0  0  0  0  0  0
   10.1036   13.5992  -22.4873 C   0  0  0  0  0  0  0  0  0  0  0  0
   10.9281   14.3925  -21.6699 C   0  0  0  0  0  0  0  0  0  0  0  0
   16.4035   12.4425  -18.9748 N   0  0  0  0  0  0  0  0  0  0  0  0
   16.5540   12.8442  -17.6807 C   0  0  0  0  0  0  0  0  0  0  0  0
   17.6531   13.0366  -16.8521 C   0  0  0  0  0  0  0  0  0  0  0  0
   17.4682   13.5477  -15.5769 C   0  0  0  0  0  0  0  0  0  0  0  0
   16.1694   13.9353  -15.1554 C   0  0  0  0  0  0  0  0  0  0  0  0
   15.1199   13.9086  -16.0375 C   0  0  0  0  0  0  0  0  0  0  0  0
   15.3051   13.3948  -17.3163 C   0  0  0  0  0  0  0  0  0  0  0  0
   14.3331   15.9831  -19.4018 C   0  0  0  0  0  0  0  0  0  0  0  0
   15.4366   16.2643  -20.0701 C   0  0  0  0  0  0  0  0  0  0  0  0
   15.9910   17.5491  -20.1017 C   0  0  0  0  0  0  0  0  0  0  0  0
   17.2612   17.8147  -20.3862 O   0  0  0  0  0  0  0  0  0  0  0  0
   15.1792   18.6145  -19.5231 C   0  0  0  0  0  0  0  0  0  0  0  0
   14.1074   18.3199  -18.7550 C   0  0  0  0  0  0  0  0  0  0  0  0
   13.6977   16.9992  -18.6077 C   0  0  0  0  0  0  0  0  0  0  0  0
 35 37  4  0
 38 37  4  0
 34 35  4  0
 35 36  1  0
 33 34  4  0
  2 39  1  0
  3  2  1  0
  2  1  2  0
  4 33  1  0
 33 39  4  0
  5 32  4  0
  4  5  1  1
  6  5  4  0
 27 32  4  0
 32 31  4  0
 28 29  4  0
 29 30  4  0
 27 28  4  0
 24 13  4  0
 13 12  4  0
 14 13  4  0
 12 11  4  0
 10 11  4  0
 24 25  4  0
 25 10  4  0
  4  3  1  0
  7  6  1  0
  8  7  1  0
  6 26  4  0
 26 27  4  0
 31 30  4  0
 16 24  4  0
 10  9  1  0
  9  8  1  0
 39 38  4  0
 15 14  4  0
 16 15  4  0
 17 18  1  0
 17 16  1  0
 18 19  4  0
 18 23  4  0
 19 20  4  0
 20 21  4  0
 21 22  4  0
 22 23  4  0
M  CHG  1   8   1
M  END
$$$$
