
     RDKit          3D

 39 45  0  0  0  0  0  0  0  0999 V2000
   13.5290   11.4280  -22.2990 O   0  0  0  0  0  0  0  0  0  0  0  0
   13.4550   12.4680  -21.6670 C   0  0  0  0  0  0  0  0  0  0  0  0
   14.4080   13.4130  -21.6130 N   0  0  0  0  0  0  0  0  0  0  0  0
   13.9660   14.5120  -20.7550 C   0  0  2  0  0  0  0  0  0  0  0  0
   15.0050   14.7720  -19.6750 C   0  0  0  0  0  0  0  0  0  0  0  0
   15.9890   15.6900  -19.7420 C   0  0  0  0  0  0  0  0  0  0  0  0
   16.2540   16.6290  -20.8940 C   0  0  0  0  0  0  0  0  0  0  0  0
   17.5230   16.2300  -21.5340 N   0  0  0  0  0  4  0  0  0  0  0  0
   18.2760   17.3350  -22.1630 C   0  0  0  0  0  0  0  0  0  0  0  0
   17.5630   17.8040  -23.4060 C   0  0  0  0  0  0  0  0  0  0  0  0
   17.7940   17.1980  -24.6450 C   0  0  0  0  0  0  0  0  0  0  0  0
   17.1140   17.6030  -25.7660 C   0  0  0  0  0  0  0  0  0  0  0  0
   16.1680   18.6370  -25.6570 C   0  0  0  0  0  0  0  0  0  0  0  0
   15.2770   19.3230  -26.5960 C   0  0  0  0  0  0  0  0  0  0  0  0
   14.6000   20.2540  -25.8970 C   0  0  0  0  0  0  0  0  0  0  0  0
   14.9620   20.2040  -24.5770 N   0  0  0  0  0  0  0  0  0  0  0  0
   14.3910   21.0180  -23.4910 C   0  0  0  0  0  0  0  0  0  0  0  0
   13.5950   20.1910  -22.4940 C   0  0  0  0  0  0  0  0  0  0  0  0
   13.4970   20.6140  -21.1710 C   0  0  0  0  0  0  0  0  0  0  0  0
   12.7570   19.8830  -20.2440 C   0  0  0  0  0  0  0  0  0  0  0  0
   12.0930   18.7250  -20.6320 C   0  0  0  0  0  0  0  0  0  0  0  0
   12.1670   18.3070  -21.9540 C   0  0  0  0  0  0  0  0  0  0  0  0
   12.9110   19.0400  -22.8790 C   0  0  0  0  0  0  0  0  0  0  0  0
   15.9310   19.2460  -24.4030 C   0  0  0  0  0  0  0  0  0  0  0  0
   16.6320   18.8140  -23.2840 C   0  0  0  0  0  0  0  0  0  0  0  0
   16.7730   15.6290  -18.6230 N   0  0  0  0  0  0  0  0  0  0  0  0
   16.3070   14.6670  -17.7660 C   0  0  0  0  0  0  0  0  0  0  0  0
   16.7440   14.2060  -16.5170 C   0  0  0  0  0  0  0  0  0  0  0  0
   16.0630   13.1740  -15.8980 C   0  0  0  0  0  0  0  0  0  0  0  0
   14.9410   12.5970  -16.5080 C   0  0  0  0  0  0  0  0  0  0  0  0
   14.5120   13.0290  -17.7410 C   0  0  0  0  0  0  0  0  0  0  0  0
   15.1800   14.0740  -18.3910 C   0  0  0  0  0  0  0  0  0  0  0  0
   12.5920   14.1230  -20.2610 C   0  0  0  0  0  0  0  0  0  0  0  0
   11.6490   14.7390  -19.4600 C   0  0  0  0  0  0  0  0  0  0  0  0
   10.4290   14.1050  -19.2160 C   0  0  0  0  0  0  0  0  0  0  0  0
    9.5070   14.6770  -18.4030 O   0  0  0  0  0  0  0  0  0  0  0  0
   10.1490   12.8600  -19.7900 C   0  0  0  0  0  0  0  0  0  0  0  0
   11.0820   12.2350  -20.5920 C   0  0  0  0  0  0  0  0  0  0  0  0
   12.3040   12.8730  -20.8490 C   0  0  0  0  0  0  0  0  0  0  0  0
 35 37  2  0
 38 37  1  0
 34 35  1  0
 35 36  1  0
 33 34  2  0
  2 39  1  0
  3  2  1  0
  2  1  2  0
  4 33  1  0
 33 39  1  0
  5 32  1  0
  4  5  1  1
  6  5  2  0
 27 32  2  0
 32 31  1  0
 28 29  2  0
 29 30  1  0
 27 28  1  0
 24 13  2  0
 13 12  1  0
 14 13  1  0
 12 11  2  0
 10 11  1  0
 24 25  1  0
 25 10  2  0
  4  3  1  0
  7  6  1  0
  8  7  1  0
  6 26  1  0
 26 27  1  0
 31 30  2  0
 16 24  1  0
 10  9  1  0
  9  8  1  0
 39 38  2  0
 15 14  2  0
 16 15  1  0
 17 18  1  0
 17 16  1  0
 18 19  2  0
 18 23  1  0
 19 20  1  0
 20 21  2  0
 21 22  1  0
 22 23  2  0
M  CHG  1   8   1
M  END
$$$$
