
     RDKit          3D

 39 45  0  0  0  0  0  0  0  0999 V2000
   10.8770   17.9550  -21.8000 C   0  0  0  0  0  0  0  0  0  0  0  0
   12.1090   18.7390  -21.9220 N   0  0  0  0  0  0  0  0  0  0  0  0
   13.0430   18.9140  -20.9740 C   0  0  0  0  0  0  0  0  0  0  0  0
   14.0050   19.7010  -21.4140 N   0  0  0  0  0  0  0  0  0  0  0  0
   13.6730   20.0480  -22.7100 C   0  0  0  0  0  0  0  0  0  0  0  0
   14.5680   20.9110  -23.5480 C   0  0  0  0  0  0  0  0  0  0  0  0
   15.1300   20.1160  -24.6370 N   0  0  0  0  0  0  0  0  0  0  0  0
   14.7640   20.1950  -25.9620 C   0  0  0  0  0  0  0  0  0  0  0  0
   15.3980   19.2420  -26.6820 C   0  0  0  0  0  0  0  0  0  0  0  0
   16.2450   18.5220  -25.7750 C   0  0  0  0  0  0  0  0  0  0  0  0
   17.1420   17.4510  -25.8890 C   0  0  0  0  0  0  0  0  0  0  0  0
   17.7960   16.9580  -24.7660 C   0  0  0  0  0  0  0  0  0  0  0  0
   17.5920   17.5260  -23.5020 C   0  0  0  0  0  0  0  0  0  0  0  0
   18.2910   16.9860  -22.2770 C   0  0  0  0  0  0  0  0  0  0  0  0
   17.4750   16.0240  -21.5120 N   0  0  0  0  0  4  0  0  0  0  0  0
   16.2750   16.6310  -20.8840 C   0  0  0  0  0  0  0  0  0  0  0  0
   15.8600   15.7320  -19.7610 C   0  0  0  0  0  0  0  0  0  0  0  0
   16.6090   15.6510  -18.6100 N   0  0  0  0  0  0  0  0  0  0  0  0
   16.0680   14.6720  -17.7920 C   0  0  0  0  0  0  0  0  0  0  0  0
   16.4710   14.2210  -16.5380 C   0  0  0  0  0  0  0  0  0  0  0  0
   15.7380   13.2040  -15.9400 C   0  0  0  0  0  0  0  0  0  0  0  0
   14.5840   12.7090  -16.5430 C   0  0  0  0  0  0  0  0  0  0  0  0
   14.1980   13.1490  -17.8030 C   0  0  0  0  0  0  0  0  0  0  0  0
   14.9310   14.1510  -18.4410 C   0  0  0  0  0  0  0  0  0  0  0  0
   14.8110   14.8600  -19.6950 C   0  0  0  0  0  0  0  0  0  0  0  0
   13.7830   14.5980  -20.7820 C   0  0  1  0  0  0  0  0  0  0  0  0
   14.2000   13.4670  -21.6070 N   0  0  0  0  0  0  0  0  0  0  0  0
   13.3280   12.4450  -21.6340 C   0  0  0  0  0  0  0  0  0  0  0  0
   13.4660   11.3890  -22.2520 O   0  0  0  0  0  0  0  0  0  0  0  0
   12.1710   12.8610  -20.8170 C   0  0  0  0  0  0  0  0  0  0  0  0
   10.9950   12.1870  -20.5050 C   0  0  0  0  0  0  0  0  0  0  0  0
   10.0670   12.7860  -19.6740 C   0  0  0  0  0  0  0  0  0  0  0  0
   10.2970   14.0660  -19.1820 C   0  0  0  0  0  0  0  0  0  0  0  0
    9.3180   14.6510  -18.4350 O   0  0  0  0  0  0  0  0  0  0  0  0
   11.4670   14.7480  -19.5070 C   0  0  0  0  0  0  0  0  0  0  0  0
   12.4120   14.1370  -20.3340 C   0  0  0  0  0  0  0  0  0  0  0  0
   16.7310   18.6160  -23.3880 C   0  0  0  0  0  0  0  0  0  0  0  0
   16.0520   19.0890  -24.5030 C   0  0  0  0  0  0  0  0  0  0  0  0
   12.5000   19.4340  -23.0280 C   0  0  0  0  0  0  0  0  0  0  0  0
 33 32  2  0
 31 32  1  0
 35 33  1  0
 33 34  1  0
 36 35  2  0
 28 29  2  0
 27 28  1  0
 28 30  1  0
 36 30  1  0
 26 36  1  0
 25 24  1  0
 26 25  1  1
 17 25  2  0
 19 24  2  0
 24 23  1  0
 20 21  2  0
 21 22  1  0
 19 20  1  0
 38 10  2  0
 11 10  1  0
 10  9  1  0
 12 11  2  0
 13 12  1  0
 37 38  1  0
 13 37  2  0
 30 31  2  0
 26 27  1  0
 16 17  1  0
 15 16  1  0
 17 18  1  0
 18 19  1  0
 23 22  2  0
 14 15  1  0
 38  7  1  0
 13 14  1  0
  9  8  2  0
  8  7  1  0
  7  6  1  0
  6  5  1  0
  5 39  2  0
  5  4  1  0
 39  2  1  0
  2  3  1  0
  2  1  1  0
  3  4  2  0
M  CHG  1  15   1
M  END
$$$$
