
     RDKit          3D

 47 50  0  0  0  0  0  0  0  0999 V2000
   35.6256   49.4408   16.8112 N   0  0  0  0  0  0  0  0  0  0  0  0
   35.5101   49.4927   15.5688 C   0  0  0  0  0  0  0  0  0  0  0  0
   36.1243   48.6719   14.8836 N   0  0  0  0  0  4  0  0  0  0  0  0
   35.0239   50.5428   14.9735 N   0  0  0  0  0  0  0  0  0  0  0  0
   33.8705   50.4301   14.1766 C   0  0  0  0  0  0  0  0  0  0  0  0
   33.8338   51.6130   13.1632 C   0  0  0  0  0  0  0  0  0  0  0  0
   32.3564   51.9932   13.0225 C   0  0  0  0  0  0  0  0  0  0  0  0
   32.0166   53.4172   13.3079 C   0  0  1  0  0  0  0  0  0  0  0  0
   32.5792   54.0638   14.4703 N   0  0  0  0  0  0  0  0  0  0  0  0
   31.6212   54.3732   15.5280 C   0  0  0  0  0  0  0  0  0  0  0  0
   30.5366   54.7365   15.0940 O   0  0  0  0  0  0  0  0  0  0  0  0
   32.0360   55.0830   16.8268 C   0  0  0  0  0  0  0  0  0  0  0  0
   31.5857   56.5553   17.0274 C   0  0  2  0  0  0  0  0  0  0  0  0
   30.3837   56.6026   17.4421 C   0  0  0  0  0  0  0  0  0  0  0  0
   29.5070   57.2241   16.3277 C   0  0  0  0  0  0  0  0  0  0  0  0
   30.4425   57.2004   15.0942 C   0  0  0  0  0  0  0  0  0  0  0  0
   31.5979   57.2464   15.6104 N   0  0  0  0  0  0  0  0  0  0  0  0
   32.8718   57.8001   14.9763 C   0  0  0  0  0  0  0  0  0  0  0  0
   32.7780   58.8552   14.3464 O   0  0  0  0  0  0  0  0  0  0  0  0
   34.1286   57.6895   15.8394 C   0  0  0  0  0  0  0  0  0  0  0  0
   35.3623   57.8916   15.0693 N   0  0  0  0  0  0  0  0  0  0  0  0
   36.4381   58.1326   16.0265 C   0  0  0  0  0  0  0  0  0  0  0  0
   36.0677   57.5319   17.3979 C   0  0  0  0  0  0  0  0  0  0  0  0
   34.8454   56.7671   17.4636 C   0  0  0  0  0  0  0  0  0  0  0  0
   34.0167   56.8637   18.6030 C   0  0  0  0  0  0  0  0  0  0  0  0
   34.5275   57.4741   19.7926 C   0  0  0  0  0  0  0  0  0  0  0  0
   35.8190   58.0886   19.7617 C   0  0  0  0  0  0  0  0  0  0  0  0
   36.6212   57.9640   18.5710 C   0  0  0  0  0  0  0  0  0  0  0  0
   38.1445   58.0008   18.8059 C   0  0  0  0  0  0  0  0  0  0  0  0
   38.4668   57.9933   20.1607 O   0  0  0  0  0  0  0  0  0  0  0  0
   35.6636   56.7520   14.2517 C   0  0  0  0  0  0  0  0  0  0  0  0
   36.7164   57.1874   13.2259 C   0  0  0  0  0  0  0  0  0  0  0  0
   38.0739   56.9526   13.4604 C   0  0  0  0  0  0  0  0  0  0  0  0
   38.9831   57.0340   12.4372 C   0  0  0  0  0  0  0  0  0  0  0  0
   38.6358   57.5138   11.2048 C   0  0  0  0  0  0  0  0  0  0  0  0
   37.3348   58.0108   11.0294 C   0  0  0  0  0  0  0  0  0  0  0  0
   36.3760   57.7851   12.0066 C   0  0  0  0  0  0  0  0  0  0  0  0
   34.8548   57.9766   11.6028 C   0  0  0  0  0  0  0  0  0  0  0  0
   34.4265   56.5037   10.6404 S   0  0  0  0  0  0  0  0  0  0  0  0
   32.7414   56.5000   10.0463 C   0  0  0  0  0  0  0  0  0  0  0  0
   31.7449   56.7207   11.2283 C   0  0  2  0  0  0  0  0  0  0  0  0
   31.8508   58.0866   11.7494 C   0  0  0  0  0  0  0  0  0  0  0  0
   33.1383   58.7085   11.8459 N   0  0  0  0  0  0  0  0  0  0  0  0
   31.0419   58.3961   12.6209 O   0  0  0  0  0  0  0  0  0  0  0  0
   31.8207   55.7091   12.2972 N   0  0  0  0  0  0  0  0  0  0  0  0
   32.0034   54.3152   12.1055 C   0  0  0  0  0  0  0  0  0  0  0  0
   32.8753   54.0735   11.2909 O   0  0  0  0  0  0  0  0  0  0  0  0
  2  3  2  0
  2  1  1  0
  4  2  1  0
 16 15  1  0
 14 15  1  0
 17 16  1  0
 20 18  1  0
 18 17  1  0
 18 19  2  0
 21 20  1  0
 22 23  1  0
 21 22  1  0
 23 24  4  0
 23 28  4  0
 24 25  4  0
 25 26  4  0
 27 26  4  0
 28 27  4  0
  6  5  1  0
  5  4  1  0
 28 29  1  0
 29 30  1  0
 32 31  1  0
 31 21  1  0
 32 33  4  0
 37 32  4  0
 33 34  4  0
 35 34  4  0
 36 35  4  0
 37 36  4  0
 38 37  1  0
  7  6  1  0
 41 40  1  0
 41 42  1  6
 45 41  1  0
 42 43  1  0
 42 44  2  0
  8 46  1  0
 46 45  1  0
 46 47  2  0
  8  7  1  6
  9  8  1  0
 12 10  1  0
 10  9  1  0
 10 11  2  0
 13 12  1  6
 13 14  1  0
 17 13  1  0
 39 38  1  0
 40 39  1  0
M  CHG  1   3   1
M  END
$$$$
