
     RDKit          3D

 47 50  0  0  0  0  0  0  0  0999 V2000
   34.8300   49.4040   15.8350 N   0  0  0  0  0  0  0  0  0  0  0  0
   36.0100   49.0320   15.9960 C   0  0  0  0  0  0  0  0  0  0  0  0
   36.2500   48.0090   16.6530 N   0  0  0  0  0  4  0  0  0  0  0  0
   36.9720   49.6680   15.4980 N   0  0  0  0  0  0  0  0  0  0  0  0
   36.7140   50.8380   14.6950 C   0  0  0  0  0  0  0  0  0  0  0  0
   36.1040   51.9640   15.5480 C   0  0  0  0  0  0  0  0  0  0  0  0
   36.9130   53.2180   15.2280 C   0  0  0  0  0  0  0  0  0  0  0  0
   36.2010   54.5090   15.4840 C   0  0  1  0  0  0  0  0  0  0  0  0
   35.0110   54.5320   16.2940 N   0  0  0  0  0  0  0  0  0  0  0  0
   33.7850   54.8540   15.5720 C   0  0  0  0  0  0  0  0  0  0  0  0
   33.8530   55.0300   14.4390 O   0  0  0  0  0  0  0  0  0  0  0  0
   32.4150   54.9500   16.2610 C   0  0  0  0  0  0  0  0  0  0  0  0
   31.7780   56.3630   16.4010 C   0  0  2  0  0  0  0  0  0  0  0  0
   31.1800   56.7430   15.3350 C   0  0  0  0  0  0  0  0  0  0  0  0
   31.9540   57.9440   14.7830 C   0  0  0  0  0  0  0  0  0  0  0  0
   33.2790   57.9360   15.5350 C   0  0  0  0  0  0  0  0  0  0  0  0
   32.9720   57.3950   16.6600 N   0  0  0  0  0  0  0  0  0  0  0  0
   33.5880   57.6040   18.0090 C   0  0  0  0  0  0  0  0  0  0  0  0
   34.4390   58.3320   18.1620 O   0  0  0  0  0  0  0  0  0  0  0  0
   32.9740   56.7850   19.1570 C   0  0  0  0  0  0  0  0  0  0  0  0
   33.8440   56.7480   20.3450 N   0  0  0  0  0  0  0  0  0  0  0  0
   33.0020   56.3180   21.4870 C   0  0  0  0  0  0  0  0  0  0  0  0
   31.9530   57.3990   21.8100 C   0  0  0  0  0  0  0  0  0  0  0  0
   30.5670   57.0090   21.8540 C   0  0  0  0  0  0  0  0  0  0  0  0
   29.5850   57.9350   22.1550 C   0  0  0  0  0  0  0  0  0  0  0  0
   29.9300   59.2520   22.4220 C   0  0  0  0  0  0  0  0  0  0  0  0
   31.2870   59.6400   22.3780 C   0  0  0  0  0  0  0  0  0  0  0  0
   32.2990   58.7140   22.0640 C   0  0  0  0  0  0  0  0  0  0  0  0
   33.7490   59.2100   22.0690 C   0  0  0  0  0  0  0  0  0  0  0  0
   34.2420   59.4330   20.8020 O   0  0  0  0  0  0  0  0  0  0  0  0
   34.9590   55.8570   20.1560 C   0  0  0  0  0  0  0  0  0  0  0  0
   35.9680   56.1730   21.2870 C   0  0  0  0  0  0  0  0  0  0  0  0
   35.8910   55.4720   22.4660 C   0  0  0  0  0  0  0  0  0  0  0  0
   36.7970   55.7510   23.5260 C   0  0  0  0  0  0  0  0  0  0  0  0
   37.7510   56.7280   23.3730 C   0  0  0  0  0  0  0  0  0  0  0  0
   37.8310   57.4470   22.1960 C   0  0  0  0  0  0  0  0  0  0  0  0
   36.9360   57.1780   21.1460 C   0  0  0  0  0  0  0  0  0  0  0  0
   37.0510   58.0160   19.8170 C   0  0  0  0  0  0  0  0  0  0  0  0
   38.2820   57.1430   18.8280 S   0  0  0  0  0  0  0  0  0  0  0  0
   38.6220   57.9170   17.2380 C   0  0  0  0  0  0  0  0  0  0  0  0
   37.3170   58.1550   16.4520 C   0  0  1  0  0  0  0  0  0  0  0  0
   37.5350   58.9270   15.2350 C   0  0  0  0  0  0  0  0  0  0  0  0
   38.0010   60.2880   15.3420 N   0  0  0  0  0  0  0  0  0  0  0  0
   37.3280   58.4850   14.1760 O   0  0  0  0  0  0  0  0  0  0  0  0
   36.5440   56.9190   16.1510 N   0  0  0  0  0  0  0  0  0  0  0  0
   37.1320   55.6700   15.7810 C   0  0  0  0  0  0  0  0  0  0  0  0
   38.2290   55.5530   15.7000 O   0  0  0  0  0  0  0  0  0  0  0  0
  2  3  2  0
  2  1  1  0
  4  2  1  0
 16 15  1  0
 14 15  1  0
 17 16  1  0
 20 18  1  0
 18 17  1  0
 18 19  2  0
 21 20  1  0
 22 23  1  0
 21 22  1  0
 23 24  2  0
 23 28  1  0
 24 25  1  0
 25 26  2  0
 27 26  1  0
 28 27  2  0
  6  5  1  0
  5  4  1  0
 28 29  1  0
 29 30  1  0
 32 31  1  0
 31 21  1  0
 32 33  1  0
 37 32  2  0
 33 34  2  0
 35 34  1  0
 36 35  2  0
 37 36  1  0
 38 37  1  0
  7  6  1  0
 41 40  1  0
 41 42  1  6
 45 41  1  0
 42 43  1  0
 42 44  2  0
  8 46  1  0
 46 45  1  0
 46 47  2  0
  8  7  1  1
  9  8  1  0
 12 10  1  0
 10  9  1  0
 10 11  2  0
 13 12  1  6
 13 14  1  0
 17 13  1  0
 39 38  1  0
 40 39  1  0
M  CHG  1   3   1
M  END
$$$$
