
     RDKit          3D

 20 21  0  0  0  0  0  0  0  0999 V2000
  143.8190  120.6010   41.6310 C   0  0  0  0  0  0  0  0  0  0  0  0
  143.2500  120.1110   40.3920 O   0  0  0  0  0  0  0  0  0  0  0  0
  141.9220  119.8010   40.4270 C   0  0  0  0  0  0  0  0  0  0  0  0
  141.1270  120.5210   41.0560 O   0  0  0  0  0  0  0  0  0  0  0  0
  141.4820  118.5700   39.6820 C   0  0  0  0  0  0  0  0  0  0  0  0
  142.2680  118.2920   38.4090 C   0  0  0  0  0  0  0  0  0  0  0  0
  143.1690  117.0350   38.4590 C   0  0  0  0  0  0  0  0  0  0  0  0
  143.3550  116.4250   39.7860 N   0  0  0  0  0  0  0  0  0  0  0  0
  144.1010  116.9750   40.7470 C   0  0  0  0  0  0  0  0  0  0  0  0
  144.6760  118.0480   40.5700 O   0  0  0  0  0  0  0  0  0  0  0  0
  144.2580  116.2430   42.0660 C   0  0  0  0  0  0  0  0  0  0  0  0
  145.3800  116.4940   42.8170 C   0  0  0  0  0  0  0  0  0  0  0  0
  145.5960  115.8320   44.0450 C   0  0  0  0  0  0  0  0  0  0  0  0
  144.6500  114.9300   44.4550 C   0  0  0  0  0  0  0  0  0  0  0  0
  143.5270  114.6550   43.7270 N   0  0  0  0  0  0  0  0  0  0  0  0
  143.2650  115.2720   42.5110 C   0  0  0  0  0  0  0  0  0  0  0  0
  142.2330  114.9880   41.8870 O   0  0  0  0  0  0  0  0  0  0  0  0
  144.9810  114.2930   45.7670 C   0  0  0  0  0  0  0  0  0  0  0  0
  146.3210  114.9590   46.1250 C   0  0  0  0  0  0  0  0  0  0  0  0
  146.7240  115.9470   45.0250 C   0  0  0  0  0  0  0  0  0  0  0  0
  9 10  2  0
 11  9  1  0
  9  8  1  0
  7  6  1  0
  8  7  1  0
 14 18  1  0
 14 13  2  0
 15 14  1  0
 20 19  1  0
 13 20  1  0
 16 11  1  0
 16 15  1  0
 16 17  2  0
 19 18  1  0
  6  5  1  0
  5  3  1  0
  3  4  2  0
  3  2  1  0
  2  1  1  0
 11 12  2  0
 12 13  1  0
M  END
$$$$
