
     RDKit          3D

 49 56  0  0  0  0  0  0  0  0999 V2000
   84.3938  205.4354   68.2877 O   0  0  0  0  0  0  0  0  0  0  0  0
   84.2553  206.2650   69.1605 C   0  0  0  0  0  0  0  0  0  0  0  0
   83.5067  205.9772   70.2664 N   0  0  0  0  0  0  0  0  0  0  0  0
   82.8362  206.9808   70.7789 C   0  0  0  0  0  0  0  0  0  0  0  0
   83.5387  208.1522   71.1246 C   0  0  0  0  0  0  0  0  0  0  0  0
   83.0119  209.3795   70.8127 C   0  0  0  0  0  0  0  0  0  0  0  0
   83.8643  210.4341   70.5612 C   0  0  0  0  0  0  0  0  0  0  0  0
   84.0134  211.2014   71.6971 O   0  0  0  0  0  0  0  0  0  0  0  0
   85.3843  211.1426   72.0763 C   0  0  0  0  0  0  0  0  0  0  0  0
   86.2520  211.7507   70.9777 C   0  0  0  0  0  0  0  0  0  0  0  0
   86.1049  212.9890   70.4986 C   0  0  0  0  0  0  0  0  0  0  0  0
   86.8644  212.9034   69.3717 N   0  0  0  0  0  0  0  0  0  0  0  0
   86.4918  213.7170   68.1347 C   0  0  0  0  0  0  0  0  0  0  0  0
   87.5652  213.4691   67.1576 C   0  0  0  0  0  0  0  0  0  0  0  0
   88.8369  214.1665   67.3948 N   0  0  0  0  0  0  0  0  0  0  0  0
   88.9726  215.2562   68.2105 C   0  0  0  0  0  0  0  0  0  0  0  0
   88.4606  216.5754   67.2359 C   0  0  0  0  0  0  0  0  0  0  0  0
   89.6679  215.8742   66.9094 C   0  0  0  0  0  0  0  0  0  0  0  0
   89.9336  214.7150   67.7233 C   0  0  0  0  0  0  0  0  0  0  0  0
   89.6997  214.9119   69.0997 C   0  0  0  0  0  0  0  0  0  0  0  0
   88.6495  215.7424   69.4734 C   0  0  0  0  0  0  0  0  0  0  0  0
   88.3176  216.9972   68.6904 C   0  0  0  0  0  0  0  0  0  0  0  0
   89.6269  217.7969   68.9515 N   0  0  0  0  0  0  0  0  0  0  0  0
   90.6218  216.8425   68.9674 C   0  0  0  0  0  0  0  0  0  0  0  0
   91.7650  217.2466   68.9547 C   0  0  0  0  0  0  0  0  0  0  0  0
   92.2510  216.9504   67.8497 C   0  0  0  0  0  0  0  0  0  0  0  0
   92.1674  215.7467   67.6693 C   0  0  0  0  0  0  0  0  0  0  0  0
   91.0463  215.4764   67.3349 C   0  0  0  0  0  0  0  0  0  0  0  0
   90.3782  215.6564   68.3884 C   0  0  0  0  0  0  0  0  0  0  0  0
   87.5801  211.8897   69.3898 N   0  0  0  0  0  0  0  0  0  0  0  0
   87.1633  211.0807   70.2451 N   0  0  0  0  0  0  0  0  0  0  0  0
   81.6347  209.5411   70.5786 C   0  0  0  0  0  0  0  0  0  0  0  0
   80.8917  208.3542   70.3358 C   0  0  0  0  0  0  0  0  0  0  0  0
   81.4865  207.1033   70.5968 N   0  0  0  0  0  0  0  0  0  0  0  0
   84.3750  207.5702   68.9349 N   0  0  0  0  0  0  0  0  0  0  0  0
   84.7315  208.0242   67.7293 C   0  0  0  0  0  0  0  0  0  0  0  0
   84.6935  207.3412   66.5256 C   0  0  0  0  0  0  0  0  0  0  0  0
   85.5662  207.7460   65.5865 C   0  0  0  0  0  0  0  0  0  0  0  0
   86.3792  208.8977   65.8327 C   0  0  0  0  0  0  0  0  0  0  0  0
   86.2199  209.5601   66.9822 C   0  0  0  0  0  0  0  0  0  0  0  0
   85.3502  209.2180   67.8771 C   0  0  0  0  0  0  0  0  0  0  0  0
   84.9483  210.3152   68.6205 C   0  0  1  0  0  0  0  0  0  0  0  0
   85.4739  210.1939   70.0747 C   0  0  0  0  0  0  0  0  0  0  0  0
   85.0004  211.4265   70.8493 C   0  0  0  0  0  0  0  0  0  0  0  0
   84.5700  212.5994   69.9115 C   0  0  0  0  0  0  0  0  0  0  0  0
   85.7229  212.6764   68.8677 C   0  0  0  0  0  0  0  0  0  0  0  0
   85.7919  211.3649   68.1887 N   0  0  0  0  0  0  0  0  0  0  0  0
   86.6480  210.7773   67.3750 C   0  0  0  0  0  0  0  0  0  0  0  0
   87.8543  211.1289   67.4057 O   0  0  0  0  0  0  0  0  0  0  0  0
 19 20  4  0
 20 21  4  0
 27 26  4  0
 26 25  4  0
 18 19  4  0
 28 27  4  0
 37 38  4  0
 38 39  4  0
 32 33  4  0
 33 34  4  0
 36 37  4  0
 40 39  4  0
  6 32  4  0
 21 22  4  0
 25 24  4  0
 17 18  4  0
 29 28  4  0
  6  5  4  0
  5  4  4  0
 11 10  4  0
 12 11  4  0
 45 44  1  0
 44 43  1  0
 46 45  1  0
 14 13  1  0
 15 14  1  0
 42 43  1  1
 47 46  1  0
 13 12  1  0
  7  6  1  0
  8  7  1  0
 10  9  1  0
  9  8  1  0
  3  2  1  0
  2 35  1  0
  2  1  2  0
 40 48  1  0
 48 47  1  0
 48 49  2  0
 10 31  4  0
  4 34  4  0
  4  3  1  0
 36 41  4  0
 35 36  1  0
 41 40  4  0
 16 17  4  0
 16 29  4  0
 16 15  1  0
 41 42  1  0
 22 17  4  0
 22 23  4  0
 24 29  4  0
 24 23  4  0
 42 47  1  0
 31 30  4  0
 30 12  4  0
M  END
$$$$
