
     RDKit          3D

 50 57  0  0  0  0  0  0  0  0999 V2000
  -39.5150  156.8730   78.4560 C   0  0  0  0  0  0  0  0  0  0  0  0
  -38.9310  157.6000   79.5980 N   0  0  1  0  0  0  0  0  0  0  0  0
  -37.4910  157.4920   79.9710 C   0  0  0  0  0  0  0  0  0  0  0  0
  -36.8800  156.2330   80.1570 C   0  0  0  0  0  0  0  0  0  0  0  0
  -36.1520  155.9250   81.3110 C   0  0  0  0  0  0  0  0  0  0  0  0
  -35.5420  154.6710   81.4190 C   0  0  0  0  0  0  0  0  0  0  0  0
  -35.6500  153.7360   80.3630 N   0  0  0  0  0  0  0  0  0  0  0  0
  -36.3480  154.0460   79.2530 C   0  0  0  0  0  0  0  0  0  0  0  0
  -36.4920  153.2580   78.1840 N   0  0  0  0  0  0  0  0  0  0  0  0
  -35.6280  152.2550   77.9970 C   0  0  0  0  0  0  0  0  0  0  0  0
  -35.7380  151.5950   76.9630 O   0  0  0  0  0  0  0  0  0  0  0  0
  -34.7220  152.0990   79.0230 N   0  0  0  0  0  0  0  0  0  0  0  0
  -33.6530  151.2680   79.2690 C   0  0  0  0  0  0  0  0  0  0  0  0
  -32.8790  151.6540   80.3720 C   0  0  0  0  0  0  0  0  0  0  0  0
  -31.7650  150.9300   80.7520 C   0  0  0  0  0  0  0  0  0  0  0  0
  -31.4630  149.8120   79.9950 C   0  0  0  0  0  0  0  0  0  0  0  0
  -32.2160  149.4480   78.9480 C   0  0  0  0  0  0  0  0  0  0  0  0
  -33.3130  150.1510   78.5660 C   0  0  0  0  0  0  0  0  0  0  0  0
  -33.8380  149.4770   77.4330 C   0  0  2  0  0  0  0  0  0  0  0  0
  -35.1670  148.8210   77.7270 C   0  0  0  0  0  0  0  0  0  0  0  0
  -35.6270  148.0580   76.4700 C   0  0  0  0  0  0  0  0  0  0  0  0
  -34.6760  146.9060   76.1340 C   0  0  0  0  0  0  0  0  0  0  0  0
  -33.2370  147.4410   76.0170 C   0  0  0  0  0  0  0  0  0  0  0  0
  -32.9460  148.3770   77.1510 N   0  0  0  0  0  0  0  0  0  0  0  0
  -32.0430  148.4060   78.1220 C   0  0  0  0  0  0  0  0  0  0  0  0
  -31.1130  147.6060   78.2180 O   0  0  0  0  0  0  0  0  0  0  0  0
  -36.9250  155.2890   79.1470 C   0  0  0  0  0  0  0  0  0  0  0  0
  -39.1510  159.0220   79.3170 C   0  0  0  0  0  0  0  0  0  0  0  0
  -39.9770  159.5420   80.4690 C   0  0  0  0  0  0  0  0  0  0  0  0
  -39.4960  159.9050   81.6450 C   0  0  0  0  0  0  0  0  0  0  0  0
  -40.5830  160.2530   82.3280 N   0  0  0  0  0  0  0  0  0  0  0  0
  -40.6270  160.7400   83.7190 C   0  0  0  0  0  0  0  0  0  0  0  0
  -40.6420  162.2520   83.7630 C   0  0  0  0  0  0  0  0  0  0  0  0
  -42.0240  162.7760   83.8510 N   0  0  0  0  0  0  0  0  0  0  0  0
  -42.6400  163.6610   83.0280 C   0  0  0  0  0  0  0  0  0  0  0  0
  -44.0290  163.5080   82.8830 C   0  0  0  0  0  0  0  0  0  0  0  0
  -44.6920  162.4630   83.5490 C   0  0  0  0  0  0  0  0  0  0  0  0
  -46.1930  162.7360   83.6650 C   0  0  0  0  0  0  0  0  0  0  0  0
  -46.7210  163.0130   82.2730 C   0  0  0  0  0  0  0  0  0  0  0  0
  -46.1190  164.3300   81.8240 C   0  0  0  0  0  0  0  0  0  0  0  0
  -44.7210  164.3920   82.0420 C   0  0  0  0  0  0  0  0  0  0  0  0
  -44.0400  165.3750   81.4290 N   0  0  0  0  0  0  0  0  0  0  0  0
  -42.7190  165.5510   81.5640 C   0  0  0  0  0  0  0  0  0  0  0  0
  -42.1150  166.6000   80.8730 C   0  0  0  0  0  0  0  0  0  0  0  0
  -40.7450  166.8320   80.9710 C   0  0  0  0  0  0  0  0  0  0  0  0
  -39.9660  166.0070   81.7720 C   0  0  0  0  0  0  0  0  0  0  0  0
  -40.5820  164.9690   82.4610 C   0  0  0  0  0  0  0  0  0  0  0  0
  -41.9570  164.7060   82.3700 C   0  0  0  0  0  0  0  0  0  0  0  0
  -41.6210  160.0790   81.5800 N   0  0  0  0  0  0  0  0  0  0  0  0
  -41.2960  159.6500   80.4650 N   0  0  0  0  0  0  0  0  0  0  0  0
 37 38  2  0
 36 37  1  0
 38 39  1  0
 40 39  2  0
 41 40  1  0
 36 41  2  0
 41 42  1  0
 35 36  1  0
 35 48  2  0
 34 35  1  0
 48 43  1  0
 48 47  1  0
 43 44  1  0
 43 42  2  0
 44 45  2  0
 46 45  1  0
 47 46  2  0
 32 33  1  0
 33 34  1  0
 31 32  1  0
 29 30  2  0
 28 29  1  0
 29 50  1  0
 30 31  1  0
  2 28  1  0
  4  3  1  0
  3  2  1  0
  4  5  2  0
 27  4  1  0
  6  5  1  0
  7  6  2  0
  8 27  2  0
  8  7  1  0
  9  8  1  0
 10  9  1  0
 12 10  1  0
 10 11  2  0
 13 18  2  0
 13 14  1  0
 13 12  1  0
 18 17  1  0
 18 19  1  0
 17 16  2  0
 17 25  1  0
 16 15  1  0
 15 14  2  0
 25 24  1  0
 25 26  2  0
 19 20  1  1
 19 24  1  0
 20 21  1  0
 21 22  1  0
 22 23  1  0
 23 24  1  0
  2  1  1  6
 31 49  1  0
 49 50  2  0
M  CHG  1   2   1
M  END
$$$$
