
     RDKit          3D

 46 53  0  0  0  0  0  0  0  0999 V2000
   -4.1606  215.6893   80.1495 O   0  0  0  0  0  0  0  0  0  0  0  0
   -5.3496  215.9010   80.2215 C   0  0  0  0  0  0  0  0  0  0  0  0
   -5.9228  217.0094   80.6789 N   0  0  0  0  0  0  0  0  0  0  0  0
   -7.1070  217.5898   80.4477 C   0  0  0  0  0  0  0  0  0  0  0  0
   -8.0611  217.0601   79.3950 C   0  0  0  0  0  0  0  0  0  0  0  0
   -9.1775  216.4357   79.9793 C   0  0  0  0  0  0  0  0  0  0  0  0
   -9.1399  215.0484   80.1905 C   0  0  0  0  0  0  0  0  0  0  0  0
   -9.0100  214.5192   81.4025 C   0  0  0  0  0  0  0  0  0  0  0  0
   -7.8123  213.9592   81.4172 N   0  0  0  0  0  0  0  0  0  0  0  0
   -7.2063  212.9943   82.4229 C   0  0  0  0  0  0  0  0  0  0  0  0
   -5.7051  213.3062   82.4642 C   0  0  0  0  0  0  0  0  0  0  0  0
   -4.9383  212.1613   83.0048 N   0  0  0  0  0  0  0  0  0  0  0  0
   -4.0259  211.4014   82.3583 C   0  0  0  0  0  0  0  0  0  0  0  0
   -2.7622  211.1225   82.8888 C   0  0  0  0  0  0  0  0  0  0  0  0
   -2.2523  209.8032   82.6231 C   0  0  0  0  0  0  0  0  0  0  0  0
   -3.0118  208.9442   81.9367 N   0  0  0  0  0  0  0  0  0  0  0  0
   -4.0303  209.3062   81.1944 C   0  0  0  0  0  0  0  0  0  0  0  0
   -4.3549  208.5914   80.0278 C   0  0  0  0  0  0  0  0  0  0  0  0
   -4.9250  209.2833   78.9192 C   0  0  0  0  0  0  0  0  0  0  0  0
   -5.3309  210.6001   79.0718 C   0  0  0  0  0  0  0  0  0  0  0  0
   -5.3080  211.1767   80.3223 C   0  0  0  0  0  0  0  0  0  0  0  0
   -4.5707  210.5856   81.3521 C   0  0  0  0  0  0  0  0  0  0  0  0
   -0.9372  209.4558   82.7516 C   0  0  0  0  0  0  0  0  0  0  0  0
   -0.1592  210.4652   83.6234 C   0  0  0  0  0  0  0  0  0  0  0  0
   -0.4144  211.8276   83.0411 C   0  0  0  0  0  0  0  0  0  0  0  0
   -1.8691  212.1429   83.3212 C   0  0  0  0  0  0  0  0  0  0  0  0
   -7.3628  213.9610   80.1806 N   0  0  0  0  0  0  0  0  0  0  0  0
   -8.2392  214.3373   79.3933 N   0  0  0  0  0  0  0  0  0  0  0  0
   -9.7711  217.1002   81.0862 C   0  0  0  0  0  0  0  0  0  0  0  0
   -8.9623  217.7794   81.9188 C   0  0  0  0  0  0  0  0  0  0  0  0
   -7.6916  218.1690   81.4849 N   0  0  0  0  0  0  0  0  0  0  0  0
   -6.2941  214.9451   79.8708 N   0  0  0  0  0  0  0  0  0  0  0  0
   -6.1012  213.6165   79.9763 C   0  0  0  0  0  0  0  0  0  0  0  0
   -7.1350  212.7224   80.2877 C   0  0  0  0  0  0  0  0  0  0  0  0
   -7.1399  212.0865   81.5255 C   0  0  0  0  0  0  0  0  0  0  0  0
   -5.8938  212.0140   82.1863 C   0  0  0  0  0  0  0  0  0  0  0  0
   -4.8484  212.6586   81.7260 C   0  0  0  0  0  0  0  0  0  0  0  0
   -4.8933  213.2956   80.4729 C   0  0  0  0  0  0  0  0  0  0  0  0
   -3.7302  212.8658   79.8438 C   0  0  1  0  0  0  0  0  0  0  0  0
   -3.1079  213.6295   78.8446 C   0  0  0  0  0  0  0  0  0  0  0  0
   -1.7425  214.1566   79.1865 C   0  0  0  0  0  0  0  0  0  0  0  0
   -0.7761  213.0700   79.6418 C   0  0  0  0  0  0  0  0  0  0  0  0
   -1.4036  212.1576   80.6309 C   0  0  0  0  0  0  0  0  0  0  0  0
   -2.8280  212.4760   80.8547 N   0  0  0  0  0  0  0  0  0  0  0  0
   -3.5257  212.5248   81.9893 C   0  0  0  0  0  0  0  0  0  0  0  0
   -3.0116  212.8173   83.0812 O   0  0  0  0  0  0  0  0  0  0  0  0
 46 45  2  0
 45 44  1  0
 45 37  1  0
 44 43  1  0
 44 39  1  0
 43 42  1  0
 42 41  1  0
 41 40  1  0
 39 40  1  6
 39 38  1  0
 38 37  4  0
 38 33  4  0
 37 36  4  0
 36 35  4  0
 35 34  4  0
 34 33  4  0
 33 32  1  0
 32  2  1  0
  2  1  2  0
  2  3  1  0
  3  4  1  0
  4  5  4  0
  4 31  4  0
  5  6  4  0
 31 30  4  0
 30 29  4  0
 29  6  4  0
  6  7  1  0
  7  8  4  0
  7 28  4  0
  8  9  4  0
 28 27  4  0
 27  9  4  0
  9 10  1  0
 10 11  1  0
 11 12  1  0
 12 13  1  0
 13 14  4  0
 13 22  4  0
 14 26  1  0
 14 15  4  0
 26 25  1  0
 25 24  1  0
 24 23  1  0
 23 15  1  0
 15 16  4  0
 16 17  4  0
 17 22  4  0
 17 18  4  0
 22 21  4  0
 21 20  4  0
 20 19  4  0
 19 18  4  0
M  END
$$$$
