
     RDKit          3D

 12 12  0  0  0  0  0  0  0  0999 V2000
  -19.7962   -2.6873    0.9572 O   0  0  0  0  0  0  0  0  0  0  0  0
  -19.8655   -2.9068   -0.4165 C   0  0  0  0  0  0  0  0  0  0  0  0
  -19.7127   -4.3874   -0.6102 C   0  0  2  0  0  0  0  0  0  0  0  0
  -18.9980   -4.6583   -1.8876 O   0  0  0  0  0  0  0  0  0  0  0  0
  -18.8258   -6.1083   -2.1586 C   0  0  2  0  0  0  0  0  0  0  0  0
  -18.1856   -6.2751   -3.3675 O   0  0  0  0  0  0  0  0  0  0  0  0
  -20.2021   -6.8301   -2.1299 C   0  0  2  0  0  0  0  0  0  0  0  0
  -21.0149   -6.3680   -3.1884 O   0  0  0  0  0  0  0  0  0  0  0  0
  -20.8747   -6.5642   -0.8587 C   0  0  2  0  0  0  0  0  0  0  0  0
  -22.1425   -7.2745   -0.6831 O   0  0  0  0  0  0  0  0  0  0  0  0
  -21.0682   -5.1119   -0.6264 C   0  0  2  0  0  0  0  0  0  0  0  0
  -21.8970   -4.5608   -1.6515 O   0  0  0  0  0  0  0  0  0  0  0  0
  9  7  1  0
  7  5  1  0
  7  8  1  6
 11  9  1  0
  9 10  1  1
  3 11  1  0
 11 12  1  6
  3  2  1  1
  3  4  1  0
  1  2  1  0
  5  6  1  1
  5  4  1  0
M  END
$$$$
