
     RDKit          3D

 12 12  0  0  0  0  0  0  0  0999 V2000
    2.6520   -4.6170   31.0730 C   0  0  0  0  0  0  0  0  0  0  0  0
    1.6560   -4.3540   32.0380 O   0  0  0  0  0  0  0  0  0  0  0  0
    1.4710   -5.3650   32.9370 C   0  0  2  0  0  0  0  0  0  0  0  0
    1.3030   -6.6180   32.1770 O   0  0  0  0  0  0  0  0  0  0  0  0
    0.1050   -6.5590   31.3170 C   0  0  1  0  0  0  0  0  0  0  0  0
   -0.0560   -7.8490   30.5890 C   0  0  0  0  0  0  0  0  0  0  0  0
   -1.1620   -6.3030   32.1150 C   0  0  1  0  0  0  0  0  0  0  0  0
   -1.4430   -7.4540   32.9220 O   0  0  0  0  0  0  0  0  0  0  0  0
   -1.0140   -5.0720   32.9660 C   0  0  1  0  0  0  0  0  0  0  0  0
   -2.1820   -4.9370   33.8320 O   0  0  0  0  0  0  0  0  0  0  0  0
    0.2280   -5.1250   33.7790 C   0  0  2  0  0  0  0  0  0  0  0  0
    0.3960   -3.8820   34.4820 O   0  0  0  0  0  0  0  0  0  0  0  0
  3 11  1  0
  3  2  1  6
  3  4  1  0
 11  9  1  0
 11 12  1  6
  9  7  1  0
  9 10  1  1
  7  5  1  0
  7  8  1  1
  5  6  1  1
  5  4  1  0
  2  1  1  0
M  END
$$$$
