
     RDKit          3D

 12 12  0  0  0  0  0  0  0  0999 V2000
   -3.6624   -6.1789   53.9428 C   0  0  0  0  0  0  0  0  0  0  0  0
   -4.5401   -6.8038   54.8195 O   0  0  0  0  0  0  0  0  0  0  0  0
   -4.0938   -7.9039   55.4468 C   0  0  2  0  0  0  0  0  0  0  0  0
   -4.0936   -9.0393   54.5495 O   0  0  0  0  0  0  0  0  0  0  0  0
   -5.5140   -9.3472   54.1207 C   0  0  1  0  0  0  0  0  0  0  0  0
   -5.5417  -10.5180   53.1950 C   0  0  0  0  0  0  0  0  0  0  0  0
   -6.3914   -9.6455   55.2712 C   0  0  1  0  0  0  0  0  0  0  0  0
   -6.0527  -10.9022   55.8598 O   0  0  0  0  0  0  0  0  0  0  0  0
   -6.3602   -8.5440   56.3082 C   0  0  1  0  0  0  0  0  0  0  0  0
   -7.0483   -8.9338   57.4861 O   0  0  0  0  0  0  0  0  0  0  0  0
   -4.9546   -8.2140   56.6784 C   0  0  2  0  0  0  0  0  0  0  0  0
   -4.9631   -7.0801   57.5454 O   0  0  0  0  0  0  0  0  0  0  0  0
  3 11  1  0
  3  2  1  6
  3  4  1  0
 11  9  1  0
 11 12  1  1
  9  7  1  0
  9 10  1  1
  7  5  1  0
  7  8  1  1
  5  6  1  6
  5  4  1  0
  2  1  1  0
M  END
$$$$
