
     RDKit          3D

 25 28  0  0  0  0  0  0  0  0999 V2000
  -22.0418   20.4433  -33.7636 C   0  0  0  0  0  0  0  0  0  0  0  0
  -23.2683   20.3868  -33.3983 C   0  0  0  0  0  0  0  0  0  0  0  0
  -23.6706   20.5415  -31.9437 C   0  0  0  0  0  0  0  0  0  0  0  0
  -22.5275   20.1028  -31.1879 O   0  0  0  0  0  0  0  0  0  0  0  0
  -22.6712   20.1109  -29.7890 C   0  0  0  0  0  0  0  0  0  0  0  0
  -23.7570   20.9450  -29.2323 C   0  0  0  0  0  0  0  0  0  0  0  0
  -23.6307   21.3689  -27.8933 C   0  0  0  0  0  0  0  0  0  0  0  0
  -22.5408   21.0656  -27.1316 C   0  0  0  0  0  0  0  0  0  0  0  0
  -21.6513   20.0913  -27.6018 C   0  0  0  0  0  0  0  0  0  0  0  0
  -21.6536   19.6490  -28.9465 C   0  0  0  0  0  0  0  0  0  0  0  0
  -20.7303   18.5498  -29.1119 C   0  0  0  0  0  0  0  0  0  0  0  0
  -20.3361   18.1013  -27.8191 C   0  0  0  0  0  0  0  0  0  0  0  0
  -19.3860   17.0795  -28.0610 C   0  0  0  0  0  0  0  0  0  0  0  0
  -19.0123   17.1655  -29.4412 C   0  0  0  0  0  0  0  0  0  0  0  0
  -19.8957   17.9548  -30.0408 N   0  0  0  0  0  0  0  0  0  0  0  0
  -20.1350   18.0477  -31.5115 C   0  0  1  0  0  0  0  0  0  0  0  0
  -21.3600   18.8622  -31.8389 C   0  0  0  0  0  0  0  0  0  0  0  0
  -18.8828   18.4379  -32.2670 C   0  0  0  0  0  0  0  0  0  0  0  0
  -17.6345   16.5605  -29.9334 C   0  0  0  0  0  0  0  0  0  0  0  0
  -17.1015   15.4787  -28.9650 C   0  0  0  0  0  0  0  0  0  0  0  0
  -17.2149   15.8171  -27.4863 C   0  0  0  0  0  0  0  0  0  0  0  0
  -18.5374   16.2377  -27.1101 C   0  0  0  0  0  0  0  0  0  0  0  0
  -18.7851   16.3897  -25.9093 O   0  0  0  0  0  0  0  0  0  0  0  0
  -20.7969   19.1065  -26.8212 C   0  0  0  0  0  0  0  0  0  0  0  0
  -20.2255   19.2787  -25.7863 O   0  0  0  0  0  0  0  0  0  0  0  0
 10 11  1  0
 11 12  4  0
 11 15  4  0
 14 13  4  0
 12 13  4  0
 13 22  1  0
 14 19  1  0
 15 14  4  0
 16 17  1  1
 16 18  1  0
 15 16  1  0
  2  1  2  0
  3  2  1  0
  4  3  1  0
  5  6  4  0
  5 10  4  0
  5  4  1  0
  6  7  4  0
  7  8  4  0
  8  9  4  0
  9 10  4  0
  9 24  1  0
 12 24  1  0
 19 20  1  0
 20 21  1  0
 21 22  1  0
 22 23  2  0
 24 25  2  0
M  END
$$$$
