
     RDKit          3D

 46 51  0  0  0  0  0  0  0  0999 V2000
   11.7200  -19.3938  -13.6608 C   0  0  0  0  0  0  0  0  0  0  0  0
   11.5301  -19.6037  -12.1551 C   0  0  0  0  0  0  0  0  0  0  0  0
   12.2814  -18.6627  -11.2456 C   0  0  0  0  0  0  0  0  0  0  0  0
   13.5206  -18.7639  -11.1314 O   0  0  0  0  0  0  0  0  0  0  0  0
   11.5795  -17.5983  -10.7928 N   0  0  0  0  0  0  0  0  0  0  0  0
   12.1360  -16.3975  -10.8708 C   0  0  0  0  0  0  0  0  0  0  0  0
   11.4297  -15.2190  -10.6849 C   0  0  0  0  0  0  0  0  0  0  0  0
   12.1385  -14.0204  -10.6160 C   0  0  0  0  0  0  0  0  0  0  0  0
   13.2714  -14.3973   -9.4342 N   0  0  0  0  0  0  0  0  0  0  0  0
   13.6094  -15.4501  -10.3630 C   0  0  0  0  0  0  0  0  0  0  0  0
   13.7407  -16.5765   -9.8937 O   0  0  0  0  0  0  0  0  0  0  0  0
   12.7458  -15.3313  -11.4268 N   0  0  0  0  0  0  0  0  0  0  0  0
   13.1203  -15.8410  -12.7580 C   0  0  2  0  0  0  0  0  0  0  0  0
   13.2008  -17.3527  -12.7684 C   0  0  0  0  0  0  0  0  0  0  0  0
   13.6923  -17.8271  -14.1654 C   0  0  0  0  0  0  0  0  0  0  0  0
   15.0131  -17.2354  -14.4203 N   0  0  2  0  0  0  0  0  0  0  0  0
   16.0880  -17.6978  -13.4610 C   0  0  0  0  0  0  0  0  0  0  0  0
   16.0923  -16.9543  -12.3089 C   0  0  0  0  0  0  0  0  0  0  0  0
   17.3359  -16.3898  -11.9595 C   0  0  0  0  0  0  0  0  0  0  0  0
   17.5886  -16.0866  -10.6293 C   0  0  0  0  0  0  0  0  0  0  0  0
   16.5274  -15.9431   -9.7404 C   0  0  0  0  0  0  0  0  0  0  0  0
   16.4055  -14.8205   -8.9205 C   0  0  0  0  0  0  0  0  0  0  0  0
   15.2213  -14.1798   -8.9931 N   0  0  0  0  0  0  0  0  0  0  0  0
   14.6696  -13.6563   -7.8890 C   0  0  0  0  0  0  0  0  0  0  0  0
   15.2606  -13.8281   -6.6500 C   0  0  0  0  0  0  0  0  0  0  0  0
   16.4867  -14.4714   -6.5781 C   0  0  0  0  0  0  0  0  0  0  0  0
   17.2152  -14.5871   -7.7722 C   0  0  0  0  0  0  0  0  0  0  0  0
   18.3667  -13.7952   -7.8227 C   0  0  0  0  0  0  0  0  0  0  0  0
   18.7450  -13.1745   -6.6272 C   0  0  0  0  0  0  0  0  0  0  0  0
   18.8080  -11.7650   -6.6003 C   0  0  0  0  0  0  0  0  0  0  0  0
   18.7762  -11.0649   -7.7894 C   0  0  0  0  0  0  0  0  0  0  0  0
   18.6223  -11.7183   -9.0033 C   0  0  0  0  0  0  0  0  0  0  0  0
   18.5683  -13.1088   -9.0122 C   0  0  0  0  0  0  0  0  0  0  0  0
   14.7919  -13.0512   -5.5658 C   0  0  0  0  0  0  0  0  0  0  0  0
   14.8193  -13.5253   -4.4312 O   0  0  0  0  0  0  0  0  0  0  0  0
   13.9997  -11.8914   -5.7938 N   0  0  0  0  0  0  0  0  0  0  0  0
   13.5130  -11.6471   -7.0443 C   0  0  0  0  0  0  0  0  0  0  0  0
   13.7381  -12.5852   -8.0308 C   0  0  0  0  0  0  0  0  0  0  0  0
   15.3037  -16.6498  -10.0630 C   0  0  0  0  0  0  0  0  0  0  0  0
   15.0493  -16.9792  -11.3749 C   0  0  0  0  0  0  0  0  0  0  0  0
   14.9810  -15.7842  -14.4007 C   0  0  0  0  0  0  0  0  0  0  0  0
   14.5345  -15.2851  -13.0136 C   0  0  0  0  0  0  0  0  0  0  0  0
   13.1415  -13.9544  -11.7427 C   0  0  0  0  0  0  0  0  0  0  0  0
   13.8731  -15.1243  -11.9245 C   0  0  0  0  0  0  0  0  0  0  0  0
   13.4016  -16.3536  -11.4795 C   0  0  0  0  0  0  0  0  0  0  0  0
   14.2048  -17.7825  -12.0007 Cl  0  0  0  0  0  0  0  0  0  0  0  0
 29 30  4  0
 29 28  4  0
 30 31  4  0
 31 32  4  0
 32 33  4  0
 33 28  4  0
 28 27  1  0
 27 26  4  0
 27 22  4  0
 26 25  4  0
 25 34  1  0
 25 24  4  0
 34 35  2  0
 34 36  1  0
 36 37  2  0
 37 38  1  0
 38 24  1  0
 24 23  4  0
 23 22  4  0
 22 21  1  0
 21 20  4  0
 21 39  4  0
 20 19  4  0
 19 18  4  0
 39 40  4  0
 40 18  4  0
 18 17  1  0
 16 17  1  1
 16 15  1  0
 16 41  1  0
 15 14  1  0
 14 13  1  0
 41 42  1  0
 42 13  1  0
 13 12  1  6
 12 10  1  0
 10 11  2  0
 10  9  1  0
  9  8  1  0
  8  7  4  0
  8 43  4  0
  7  6  4  0
 43 44  4  0
 44 45  4  0
 45 46  1  0
 45  6  4  0
  6  5  1  0
  5  3  1  0
  3  4  2  0
  3  2  1  0
  2  1  1  0
M  CHG  1  16   1
M  END
$$$$
