
     RDKit          3D

 41 46  0  0  0  0  0  0  0  0999 V2000
    7.8980    4.8748   -9.0755 C   0  0  0  0  0  0  0  0  0  0  0  0
    6.4573    4.8762   -9.7337 C   0  0  0  0  0  0  0  0  0  0  0  0
    6.4582    4.9568  -11.2819 C   0  0  0  0  0  0  0  0  0  0  0  0
    7.5353    4.8662  -11.9282 O   0  0  0  0  0  0  0  0  0  0  0  0
    5.2150    4.8796  -11.8134 N   0  0  0  0  0  0  0  0  0  0  0  0
    4.1774    4.4285  -11.1000 C   0  0  0  0  0  0  0  0  0  0  0  0
    4.1703    3.1481  -10.5327 C   0  0  0  0  0  0  0  0  0  0  0  0
    3.4635    2.8751   -9.3182 C   0  0  0  0  0  0  0  0  0  0  0  0
    2.5172    3.8018   -8.9197 C   0  0  0  0  0  0  0  0  0  0  0  0
    1.3121    3.3476   -8.5038 N   0  0  0  0  0  0  0  0  0  0  0  0
    0.2037    4.3007   -8.5382 C   0  0  0  0  0  0  0  0  0  0  0  0
   -0.8713    3.8864   -9.5535 C   0  0  0  0  0  0  0  0  0  0  0  0
   -1.2510    2.4625   -9.4572 N   0  0  1  0  0  0  0  0  0  0  0  0
   -2.2157    2.2322  -10.4742 C   0  0  0  0  0  0  0  0  0  0  0  0
   -1.7590    1.4541  -11.5238 C   0  0  0  0  0  0  0  0  0  0  0  0
   -2.2486    0.2040  -11.8146 C   0  0  0  0  0  0  0  0  0  0  0  0
   -2.5990   -0.1474  -13.1567 C   0  0  0  0  0  0  0  0  0  0  0  0
   -2.4466    0.8492  -14.1070 C   0  0  0  0  0  0  0  0  0  0  0  0
   -3.6303    1.2403  -14.8330 C   0  0  0  0  0  0  0  0  0  0  0  0
   -3.6834    2.5193  -15.2288 N   0  0  0  0  0  0  0  0  0  0  0  0
   -4.5451    2.9327  -16.2123 C   0  0  0  0  0  0  0  0  0  0  0  0
   -5.0720    1.9396  -17.0364 C   0  0  0  0  0  0  0  0  0  0  0  0
   -4.8919    0.5551  -16.7494 C   0  0  0  0  0  0  0  0  0  0  0  0
   -4.4995    0.2774  -15.4337 C   0  0  0  0  0  0  0  0  0  0  0  0
   -5.5210   -0.3294  -14.6699 C   0  0  0  0  0  0  0  0  0  0  0  0
   -6.7144    0.3787  -14.5711 C   0  0  0  0  0  0  0  0  0  0  0  0
   -7.2269    0.7132  -13.2860 C   0  0  0  0  0  0  0  0  0  0  0  0
   -6.7328    0.0992  -12.1783 C   0  0  0  0  0  0  0  0  0  0  0  0
   -5.7130   -0.8234  -12.3115 C   0  0  0  0  0  0  0  0  0  0  0  0
   -5.1770   -1.1080  -13.5774 C   0  0  0  0  0  0  0  0  0  0  0  0
   -6.0941    2.3146  -17.9381 C   0  0  0  0  0  0  0  0  0  0  0  0
   -6.0194    1.9972  -19.1527 O   0  0  0  0  0  0  0  0  0  0  0  0
   -6.8946    3.4179  -17.5904 N   0  0  0  0  0  0  0  0  0  0  0  0
   -6.4528    4.3009  -16.6268 C   0  0  0  0  0  0  0  0  0  0  0  0
   -5.2045    4.1190  -16.0448 C   0  0  0  0  0  0  0  0  0  0  0  0
   -1.4623    1.8232  -13.9054 C   0  0  0  0  0  0  0  0  0  0  0  0
   -1.1898    2.1849  -12.5948 C   0  0  0  0  0  0  0  0  0  0  0  0
   -0.0743    1.6246   -9.7133 C   0  0  0  0  0  0  0  0  0  0  0  0
    1.0282    1.8559   -8.6907 C   0  0  0  0  0  0  0  0  0  0  0  0
    2.5929    5.1382   -9.4042 C   0  0  0  0  0  0  0  0  0  0  0  0
    3.2819    5.3627  -10.5825 C   0  0  0  0  0  0  0  0  0  0  0  0
 26 27  4  0
 26 25  4  0
 27 28  4  0
 28 29  4  0
 29 30  4  0
 30 25  4  0
 25 24  1  0
 24 23  4  0
 24 19  4  0
 23 22  4  0
 22 31  1  0
 22 21  4  0
 31 32  2  0
 31 33  1  0
 33 34  2  0
 34 35  1  0
 35 21  1  0
 21 20  4  0
 20 19  4  0
 19 18  1  0
 18 17  4  0
 18 36  4  0
 17 16  4  0
 16 15  4  0
 36 37  4  0
 37 15  4  0
 15 14  1  0
 13 14  1  6
 13 12  1  0
 13 38  1  0
 12 11  1  0
 11 10  1  0
 38 39  1  0
 39 10  1  0
 10  9  1  0
  9  8  4  0
  9 40  4  0
  8  7  4  0
  7  6  4  0
 40 41  4  0
 41  6  4  0
  6  5  1  0
  5  3  1  0
  3  4  2  0
  3  2  1  0
  2  1  1  0
M  CHG  1  13   1
M  END
$$$$
