
     RDKit          3D

 44 49  0  0  0  0  0  0  0  0999 V2000
    4.2671    5.0837   -7.8320 C   0  0  0  0  0  0  0  0  0  0  0  0
    4.8339    5.0813   -9.2293 C   0  0  0  0  0  0  0  0  0  0  0  0
    3.7849    5.0510  -10.3315 C   0  0  0  0  0  0  0  0  0  0  0  0
    4.1633    5.0939  -11.5146 O   0  0  0  0  0  0  0  0  0  0  0  0
    2.5480    4.7980   -9.9764 N   0  0  0  0  0  0  0  0  0  0  0  0
    1.6116    5.6435  -10.4236 C   0  0  0  0  0  0  0  0  0  0  0  0
    1.8456    6.9916  -10.5089 C   0  0  0  0  0  0  0  0  0  0  0  0
    0.7748    7.8658  -10.4849 C   0  0  0  0  0  0  0  0  0  0  0  0
   -0.5127    7.4071  -10.5844 C   0  0  0  0  0  0  0  0  0  0  0  0
   -0.7692    6.0537  -10.3996 C   0  0  0  0  0  0  0  0  0  0  0  0
   -1.8220    5.6475   -9.5448 C   0  0  0  0  0  0  0  0  0  0  0  0
   -2.7790    5.0711  -10.1034 O   0  0  0  0  0  0  0  0  0  0  0  0
   -1.4430    5.4952   -8.3196 N   0  0  0  0  0  0  0  0  0  0  0  0
   -0.0605    5.1923   -7.9008 C   0  0  1  0  0  0  0  0  0  0  0  0
    0.0084    3.9921   -6.9306 C   0  0  0  0  0  0  0  0  0  0  0  0
   -0.5281    2.7815   -7.6812 C   0  0  0  0  0  0  0  0  0  0  0  0
    0.3023    2.5584   -8.9125 N   0  0  1  0  0  0  0  0  0  0  0  0
   -0.3302    1.4663   -9.7055 C   0  0  0  0  0  0  0  0  0  0  0  0
   -0.5689    1.7857  -11.0306 C   0  0  0  0  0  0  0  0  0  0  0  0
   -1.3863    2.8855  -11.2628 C   0  0  0  0  0  0  0  0  0  0  0  0
   -2.3520    2.7885  -12.2596 C   0  0  0  0  0  0  0  0  0  0  0  0
   -2.3578    1.6957  -13.1291 C   0  0  0  0  0  0  0  0  0  0  0  0
   -3.1626    1.7606  -14.3019 C   0  0  0  0  0  0  0  0  0  0  0  0
   -2.6275    2.4536  -15.3464 N   0  0  0  0  0  0  0  0  0  0  0  0
   -3.4157    3.1572  -16.1741 C   0  0  0  0  0  0  0  0  0  0  0  0
   -4.7819    2.8763  -16.2511 C   0  0  0  0  0  0  0  0  0  0  0  0
   -5.3779    2.2233  -15.1335 C   0  0  0  0  0  0  0  0  0  0  0  0
   -4.5458    1.4619  -14.2884 C   0  0  0  0  0  0  0  0  0  0  0  0
   -5.0653    0.2326  -13.8654 C   0  0  0  0  0  0  0  0  0  0  0  0
   -5.6687    0.1574  -12.6327 C   0  0  0  0  0  0  0  0  0  0  0  0
   -7.0073   -0.2637  -12.5843 C   0  0  0  0  0  0  0  0  0  0  0  0
   -7.5763   -0.9109  -13.7086 C   0  0  0  0  0  0  0  0  0  0  0  0
   -6.8288   -1.0646  -14.8440 C   0  0  0  0  0  0  0  0  0  0  0  0
   -5.5099   -0.6689  -14.8789 C   0  0  0  0  0  0  0  0  0  0  0  0
   -5.5953    3.6335  -17.1019 C   0  0  0  0  0  0  0  0  0  0  0  0
   -6.4257    3.0382  -17.8010 O   0  0  0  0  0  0  0  0  0  0  0  0
   -5.1065    4.9077  -17.4715 N   0  0  0  0  0  0  0  0  0  0  0  0
   -3.8621    5.2410  -17.2483 C   0  0  0  0  0  0  0  0  0  0  0  0
   -2.9695    4.3972  -16.6212 C   0  0  0  0  0  0  0  0  0  0  0  0
   -1.3954    0.6777  -13.0002 C   0  0  0  0  0  0  0  0  0  0  0  0
   -0.4088    0.7881  -12.0162 C   0  0  0  0  0  0  0  0  0  0  0  0
    0.2666    3.7205   -9.7821 C   0  0  0  0  0  0  0  0  0  0  0  0
    0.8121    4.9268   -9.0716 C   0  0  0  0  0  0  0  0  0  0  0  0
    0.3094    5.1492  -10.5686 C   0  0  0  0  0  0  0  0  0  0  0  0
 30 31  4  0
 30 29  4  0
 31 32  4  0
 32 33  4  0
 33 34  4  0
 34 29  4  0
 29 28  1  0
 28 27  4  0
 28 23  4  0
 27 26  4  0
 26 35  1  0
 26 25  4  0
 35 36  2  0
 35 37  1  0
 37 38  2  0
 38 39  1  0
 39 25  1  0
 25 24  4  0
 24 23  4  0
 23 22  1  0
 22 21  4  0
 22 40  4  0
 21 20  4  0
 20 19  4  0
 40 41  4  0
 41 19  4  0
 19 18  1  0
 17 18  1  1
 17 16  1  0
 17 42  1  0
 16 15  1  0
 15 14  1  0
 42 43  1  0
 43 14  1  0
 14 13  1  6
 13 11  1  0
 11 12  2  0
 11 10  1  0
 10 44  4  0
 10  9  4  0
 44  6  4  0
  9  8  4  0
  8  7  4  0
  7  6  4  0
  6  5  1  0
  5  3  1  0
  3  4  2  0
  3  2  1  0
  2  1  1  0
M  CHG  1  17   1
M  END
$$$$
