
     RDKit          3D

 46 52  0  0  0  0  0  0  0  0999 V2000
    4.3740  -14.1580  -20.2370 C   0  0  0  0  0  0  0  0  0  0  0  0
    4.4900  -14.4000  -18.7320 C   0  0  0  0  0  0  0  0  0  0  0  0
    5.5640  -15.4030  -18.3150 C   0  0  0  0  0  0  0  0  0  0  0  0
    5.5770  -15.8630  -17.1760 O   0  0  0  0  0  0  0  0  0  0  0  0
    6.4470  -15.7280  -19.2720 N   0  0  0  0  0  0  0  0  0  0  0  0
    7.3880  -16.6230  -18.9640 C   0  0  0  0  0  0  0  0  0  0  0  0
    7.3770  -17.8410  -19.6230 C   0  0  0  0  0  0  0  0  0  0  0  0
    8.3500  -18.7700  -19.2980 C   0  0  0  0  0  0  0  0  0  0  0  0
    9.2670  -18.4910  -18.3750 C   0  0  0  0  0  0  0  0  0  0  0  0
    9.2890  -17.3150  -17.7280 C   0  0  0  0  0  0  0  0  0  0  0  0
    8.3720  -16.3810  -18.0050 C   0  0  0  0  0  0  0  0  0  0  0  0
   10.3110  -17.3330  -16.8620 N   0  0  0  0  0  0  0  0  0  0  0  0
   10.7240  -16.2330  -15.9400 C   0  0  1  0  0  0  0  0  0  0  0  0
   10.9860  -16.7060  -14.5040 C   0  0  0  0  0  0  0  0  0  0  0  0
   11.4120  -15.5180  -13.6430 C   0  0  0  0  0  0  0  0  0  0  0  0
   12.5990  -14.8380  -14.1880 N   0  0  2  0  0  0  0  0  0  0  0  0
   12.8960  -13.6510  -13.3710 C   0  0  0  0  0  0  0  0  0  0  0  0
   13.7520  -13.9090  -12.3000 C   0  0  0  0  0  0  0  0  0  0  0  0
   13.3370  -13.6180  -11.0060 C   0  0  0  0  0  0  0  0  0  0  0  0
   14.1830  -13.8630   -9.9270 C   0  0  0  0  0  0  0  0  0  0  0  0
   15.4590  -14.3830  -10.1390 C   0  0  0  0  0  0  0  0  0  0  0  0
   16.3130  -14.6520   -9.0680 C   0  0  0  0  0  0  0  0  0  0  0  0
   16.7370  -15.9240   -8.9540 N   0  0  0  0  0  0  0  0  0  0  0  0
   17.5510  -16.3270   -7.9680 C   0  0  0  0  0  0  0  0  0  0  0  0
   17.9850  -15.4230   -7.0160 C   0  0  0  0  0  0  0  0  0  0  0  0
   17.5680  -14.1040   -7.0920 C   0  0  0  0  0  0  0  0  0  0  0  0
   16.7260  -13.7000   -8.1220 C   0  0  0  0  0  0  0  0  0  0  0  0
   16.3600  -12.3540   -8.1270 C   0  0  0  0  0  0  0  0  0  0  0  0
   15.8580  -11.8020   -6.9540 C   0  0  0  0  0  0  0  0  0  0  0  0
   15.4940  -10.4620   -6.9130 C   0  0  0  0  0  0  0  0  0  0  0  0
   15.6450   -9.6630   -8.0390 C   0  0  0  0  0  0  0  0  0  0  0  0
   16.1600  -10.2060   -9.2110 C   0  0  0  0  0  0  0  0  0  0  0  0
   16.5250  -11.5470   -9.2510 C   0  0  0  0  0  0  0  0  0  0  0  0
   18.8280  -15.8440   -5.9960 C   0  0  0  0  0  0  0  0  0  0  0  0
   19.2220  -15.0530   -5.1430 O   0  0  0  0  0  0  0  0  0  0  0  0
   19.2340  -17.1830   -5.9380 N   0  0  0  0  0  0  0  0  0  0  0  0
   18.8190  -18.0470   -6.8480 C   0  0  0  0  0  0  0  0  0  0  0  0
   17.9720  -17.6490   -7.8810 C   0  0  0  0  0  0  0  0  0  0  0  0
   15.8710  -14.6810  -11.4330 C   0  0  0  0  0  0  0  0  0  0  0  0
   15.0250  -14.4360  -12.5130 C   0  0  0  0  0  0  0  0  0  0  0  0
   12.2920  -14.3750  -15.5510 C   0  0  0  0  0  0  0  0  0  0  0  0
   11.9680  -15.5450  -16.4620 C   0  0  0  0  0  0  0  0  0  0  0  0
   10.9040  -18.5130  -17.0100 C   0  0  0  0  0  0  0  0  0  0  0  0
   11.8890  -18.9120  -16.3930 O   0  0  0  0  0  0  0  0  0  0  0  0
   10.2720  -19.2310  -17.9220 N   0  0  0  0  0  0  0  0  0  0  0  0
   10.6210  -20.5990  -18.3590 C   0  0  0  0  0  0  0  0  0  0  0  0
 29 30  2  0
 29 28  1  0
 30 31  1  0
 31 32  2  0
 32 33  1  0
 33 28  2  0
 28 27  1  0
 27 26  2  0
 27 22  1  0
 26 25  1  0
 25 34  1  0
 25 24  2  0
 34 35  2  0
 34 36  1  0
 36 37  2  0
 37 38  1  0
 38 24  1  0
 24 23  1  0
 23 22  2  0
 22 21  1  0
 21 20  2  0
 21 39  1  0
 20 19  1  0
 19 18  2  0
 39 40  2  0
 40 18  1  0
 18 17  1  0
 16 17  1  1
 16 15  1  0
 16 41  1  0
 15 14  1  0
 14 13  1  0
 41 42  1  0
 42 13  1  0
 13 12  1  6
 12 10  1  0
 12 43  1  0
 10 11  2  0
 10  9  1  0
 11  6  1  0
 43 44  2  0
 43 45  1  0
 45 46  1  0
 45  9  1  0
  9  8  2  0
  8  7  1  0
  7  6  2  0
  6  5  1  0
  5  3  1  0
  3  4  2  0
  3  2  1  0
  2  1  1  0
M  CHG  1  16   1
M  END
$$$$
