
     RDKit          3D

 46 52  0  0  0  0  0  0  0  0999 V2000
   16.5742  -20.6685  -10.1562 C   0  0  0  0  0  0  0  0  0  0  0  0
   16.1576  -19.7358   -9.0540 C   0  0  0  0  0  0  0  0  0  0  0  0
   16.5865  -18.2830   -9.2909 C   0  0  0  0  0  0  0  0  0  0  0  0
   17.7797  -17.9532   -9.2912 O   0  0  0  0  0  0  0  0  0  0  0  0
   15.5863  -17.4264   -9.3839 N   0  0  0  0  0  0  0  0  0  0  0  0
   15.2320  -17.0151  -10.6553 C   0  0  0  0  0  0  0  0  0  0  0  0
   16.1518  -17.3451  -11.6674 C   0  0  0  0  0  0  0  0  0  0  0  0
   15.6647  -17.4429  -12.9643 C   0  0  0  0  0  0  0  0  0  0  0  0
   14.3510  -17.2494  -13.2202 C   0  0  0  0  0  0  0  0  0  0  0  0
   13.5699  -16.6377  -12.2630 C   0  0  0  0  0  0  0  0  0  0  0  0
   13.9353  -16.6188  -10.9995 C   0  0  0  0  0  0  0  0  0  0  0  0
   12.3337  -16.5596  -12.8279 N   0  0  0  0  0  0  0  0  0  0  0  0
   11.5481  -15.3140  -13.0211 C   0  0  2  0  0  0  0  0  0  0  0  0
   11.6796  -14.7607  -14.4666 C   0  0  0  0  0  0  0  0  0  0  0  0
   12.9816  -14.0770  -14.7089 C   0  0  0  0  0  0  0  0  0  0  0  0
   13.7762  -13.5860  -13.6191 N   0  0  2  0  0  0  0  0  0  0  0  0
   14.7426  -14.6806  -13.2444 C   0  0  0  0  0  0  0  0  0  0  0  0
   15.1472  -14.6260  -11.8600 C   0  0  0  0  0  0  0  0  0  0  0  0
   16.2753  -15.2629  -11.4707 C   0  0  0  0  0  0  0  0  0  0  0  0
   17.0710  -14.7187  -10.4719 C   0  0  0  0  0  0  0  0  0  0  0  0
   16.5274  -13.7286   -9.6439 C   0  0  0  0  0  0  0  0  0  0  0  0
   16.6970  -13.8014   -8.2435 C   0  0  0  0  0  0  0  0  0  0  0  0
   15.7874  -14.4866   -7.5971 N   0  0  0  0  0  0  0  0  0  0  0  0
   15.4368  -14.2342   -6.3390 C   0  0  0  0  0  0  0  0  0  0  0  0
   16.4066  -13.5416   -5.5245 C   0  0  0  0  0  0  0  0  0  0  0  0
   17.4709  -12.9739   -6.1206 C   0  0  0  0  0  0  0  0  0  0  0  0
   17.4269  -12.7732   -7.4862 C   0  0  0  0  0  0  0  0  0  0  0  0
   17.2937  -11.3877   -7.9145 C   0  0  0  0  0  0  0  0  0  0  0  0
   16.3053  -11.1771   -8.8331 C   0  0  0  0  0  0  0  0  0  0  0  0
   15.2232  -10.3728   -8.4568 C   0  0  0  0  0  0  0  0  0  0  0  0
   15.2607   -9.5872   -7.3265 C   0  0  0  0  0  0  0  0  0  0  0  0
   16.3619   -9.6478   -6.4871 C   0  0  0  0  0  0  0  0  0  0  0  0
   17.4988  -10.4544   -6.9000 C   0  0  0  0  0  0  0  0  0  0  0  0
   16.0323  -13.2090   -4.2182 C   0  0  0  0  0  0  0  0  0  0  0  0
   16.8999  -12.5917   -3.5156 O   0  0  0  0  0  0  0  0  0  0  0  0
   14.6875  -13.0520   -3.8827 N   0  0  0  0  0  0  0  0  0  0  0  0
   13.7835  -13.5169   -4.7105 C   0  0  0  0  0  0  0  0  0  0  0  0
   14.1089  -14.1764   -5.9098 C   0  0  0  0  0  0  0  0  0  0  0  0
   15.4085  -12.9743  -10.1020 C   0  0  0  0  0  0  0  0  0  0  0  0
   14.6149  -13.5934  -11.0565 C   0  0  0  0  0  0  0  0  0  0  0  0
   12.9998  -13.2601  -12.4405 C   0  0  0  0  0  0  0  0  0  0  0  0
   11.9941  -14.3024  -12.0683 C   0  0  0  0  0  0  0  0  0  0  0  0
   12.3120  -17.5845  -13.7001 C   0  0  0  0  0  0  0  0  0  0  0  0
   11.3221  -17.9195  -14.4030 O   0  0  0  0  0  0  0  0  0  0  0  0
   13.5627  -17.9278  -14.0446 N   0  0  0  0  0  0  0  0  0  0  0  0
   13.9591  -18.4318  -15.3486 C   0  0  0  0  0  0  0  0  0  0  0  0
 29 30  4  0
 29 28  4  0
 30 31  4  0
 31 32  4  0
 32 33  4  0
 33 28  4  0
 28 27  1  0
 27 26  4  0
 27 22  4  0
 26 25  4  0
 25 34  1  0
 25 24  4  0
 34 35  2  0
 34 36  1  0
 36 37  2  0
 37 38  1  0
 38 24  1  0
 24 23  4  0
 23 22  4  0
 22 21  1  0
 21 20  4  0
 21 39  4  0
 20 19  4  0
 19 18  4  0
 39 40  4  0
 40 18  4  0
 18 17  1  0
 16 17  1  1
 16 15  1  0
 16 41  1  0
 15 14  1  0
 14 13  1  0
 41 42  1  0
 42 13  1  0
 13 12  1  1
 12 10  4  0
 12 43  4  0
 10 11  4  0
 10  9  4  0
 11  6  4  0
 43 44  2  0
 43 45  4  0
 45 46  1  0
 45  9  4  0
  9  8  4  0
  8  7  4  0
  7  6  4  0
  6  5  1  0
  5  3  1  0
  3  4  2  0
  3  2  1  0
  2  1  1  0
M  CHG  1  16   1
M  END
$$$$
