
     RDKit          3D

 42 43  0  0  0  0  0  0  0  0999 V2000
   15.1900   17.7030    4.9040 C   0  0  0  0  0  0  0  0  0  0  0  0
   16.6160   18.1730    4.8620 C   0  0  1  0  0  0  0  0  0  0  0  0
   16.7620   19.5720    5.4570 C   0  0  0  0  0  0  0  0  0  0  0  0
   17.5380   17.1780    5.6040 C   0  0  2  0  0  0  0  0  0  0  0  0
   17.2500   17.1110    7.0350 N   0  0  0  0  0  0  0  0  0  0  0  0
   16.7170   16.0210    7.5830 C   0  0  0  0  0  0  0  0  0  0  0  0
   16.3900   15.0360    6.9170 O   0  0  0  0  0  0  0  0  0  0  0  0
   16.4890   16.0230    9.0910 C   0  0  1  0  0  0  0  0  0  0  0  0
   15.4170   15.0610    9.3710 N   0  0  0  0  0  0  0  0  0  0  0  0
   14.4100   15.2850   10.2130 C   0  0  0  0  0  0  0  0  0  0  0  0
   14.3550   16.2520   10.9620 O   0  0  0  0  0  0  0  0  0  0  0  0
   13.2950   14.2400   10.2150 C   0  0  2  0  0  0  0  0  0  0  0  0
   12.1150   14.7310    9.3900 C   0  0  0  0  0  0  0  0  0  0  0  0
   12.8650   13.9060   11.5630 N   0  0  0  0  0  0  0  0  0  0  0  0
   13.5780   13.0750   12.3200 C   0  0  0  0  0  0  0  0  0  0  0  0
   14.6530   12.5970   11.9530 O   0  0  0  0  0  0  0  0  0  0  0  0
   12.9700   12.7460   13.6750 C   0  0  2  0  0  0  0  0  0  0  0  0
   13.3150   13.8150   14.7150 C   0  0  0  0  0  0  0  0  0  0  0  0
   14.6150   13.3430   15.2880 C   0  0  0  0  0  0  0  0  0  0  0  0
   14.5190   11.8250   15.3180 C   0  0  0  0  0  0  0  0  0  0  0  0
   13.5580   11.5260   14.2380 N   0  0  0  0  0  0  0  0  0  0  0  0
   13.2100   10.3310   13.7600 C   0  0  0  0  0  0  0  0  0  0  0  0
   12.3650   10.1880   12.8690 O   0  0  0  0  0  0  0  0  0  0  0  0
   13.9080    9.1080   14.3730 C   0  0  1  0  0  0  0  0  0  0  0  0
   13.0430    7.9320   14.3620 N   0  0  0  0  0  0  0  0  0  0  0  0
   15.2210    8.8130   13.6310 C   0  0  0  0  0  0  0  0  0  0  0  0
   15.0330    8.2000   12.2700 C   0  0  0  0  0  0  0  0  0  0  0  0
   14.9130    9.0000   11.1410 C   0  0  0  0  0  0  0  0  0  0  0  0
   14.7390    8.4300    9.8840 C   0  0  0  0  0  0  0  0  0  0  0  0
   14.6930    7.0510    9.7500 C   0  0  0  0  0  0  0  0  0  0  0  0
   14.8140    6.2490   10.8640 C   0  0  0  0  0  0  0  0  0  0  0  0
   14.9880    6.8200   12.1150 C   0  0  0  0  0  0  0  0  0  0  0  0
   17.7830   15.6530    9.8350 C   0  0  1  0  0  0  0  0  0  0  0  0
   17.6080   15.8650   11.3440 C   0  0  0  0  0  0  0  0  0  0  0  0
   17.9840   14.2810    9.4960 O   0  0  0  0  0  0  0  0  0  0  0  0
   19.4420   13.6990    9.8690 P   0  0  1  0  0  0  0  0  0  0  0  0
   19.4460   13.3310   11.3000 O   0  0  0  0  0  0  0  0  0  0  0  0
   19.5710   12.3660    8.9930 O   0  0  0  0  0  0  0  0  0  0  0  0
   20.6050   14.7430    9.5160 O   0  0  0  0  0  0  0  0  0  0  0  0
   18.9750   17.5610    5.3610 C   0  0  0  0  0  0  0  0  0  0  0  0
   19.7240   17.8580    6.2940 O   0  0  0  0  0  0  0  0  0  0  0  0
   19.4000   17.5940    4.2000 O   0  0  0  0  0  0  0  0  0  0  0  0
 24 25  1  6
 24 22  1  0
 24 26  1  0
 22 23  2  0
 22 21  1  0
 26 27  1  0
 27 28  2  0
 27 32  1  0
 28 29  1  0
 32 31  2  0
 29 30  2  0
 31 30  1  0
 21 17  1  0
 21 20  1  0
 17 15  1  6
 17 18  1  0
 15 16  2  0
 15 14  1  0
 18 19  1  0
 19 20  1  0
 14 12  1  0
 12 10  1  0
 12 13  1  6
 10 11  2  0
 10  9  1  0
  8  9  1  6
  8 33  1  0
  8  6  1  0
 33 34  1  1
 33 35  1  0
 35 36  1  0
 36 38  1  6
 36 37  2  0
 36 39  1  0
  6  7  2  0
  6  5  1  0
  4  5  1  1
  4 40  1  0
  4  2  1  0
 40 41  2  0
 40 42  1  0
  2  1  1  1
  2  3  1  0
M  CHG  1  25   1
M  END
$$$$
