
     RDKit          3D

 42 43  0  0  0  0  0  0  0  0999 V2000
   17.6304   18.4120    3.9018 C   0  0  0  0  0  0  0  0  0  0  0  0
   16.8051   17.4173    4.6915 C   0  0  2  0  0  0  0  0  0  0  0  0
   15.4559   17.9754    5.1300 C   0  0  0  0  0  0  0  0  0  0  0  0
   17.6005   16.9038    5.8981 C   0  0  2  0  0  0  0  0  0  0  0  0
   16.8763   17.0702    7.1634 N   0  0  0  0  0  0  0  0  0  0  0  0
   16.2535   16.0274    7.7031 C   0  0  0  0  0  0  0  0  0  0  0  0
   15.8515   15.1069    7.0453 O   0  0  0  0  0  0  0  0  0  0  0  0
   16.3895   15.9077    9.2422 C   0  0  1  0  0  0  0  0  0  0  0  0
   15.6448   14.6942    9.6392 N   0  0  0  0  0  0  0  0  0  0  0  0
   14.4328   14.7006   10.2181 C   0  0  0  0  0  0  0  0  0  0  0  0
   13.9909   15.6954   10.7338 O   0  0  0  0  0  0  0  0  0  0  0  0
   13.8051   13.3357   10.5121 C   0  0  2  0  0  0  0  0  0  0  0  0
   12.5935   13.1065    9.6654 C   0  0  0  0  0  0  0  0  0  0  0  0
   13.4780   13.1868   11.9133 N   0  0  0  0  0  0  0  0  0  0  0  0
   14.1907   12.4052   12.6958 C   0  0  0  0  0  0  0  0  0  0  0  0
   15.4294   12.4656   12.7483 O   0  0  0  0  0  0  0  0  0  0  0  0
   13.3880   11.6628   13.7404 C   0  0  1  0  0  0  0  0  0  0  0  0
   11.9566   11.4184   13.2900 C   0  0  0  0  0  0  0  0  0  0  0  0
   12.0852   10.0780   12.6140 C   0  0  0  0  0  0  0  0  0  0  0  0
   13.0781    9.2662   13.3834 C   0  0  0  0  0  0  0  0  0  0  0  0
   13.9223   10.3266   14.0284 N   0  0  0  0  0  0  0  0  0  0  0  0
   15.0021   10.1539   14.7917 C   0  0  0  0  0  0  0  0  0  0  0  0
   15.9890   10.9371   14.6804 O   0  0  0  0  0  0  0  0  0  0  0  0
   15.2372    8.7779   15.4053 C   0  0  2  0  0  0  0  0  0  0  0  0
   13.9214    8.1145   15.6504 N   0  0  0  0  0  0  0  0  0  0  0  0
   16.0140    8.9076   16.7023 C   0  0  0  0  0  0  0  0  0  0  0  0
   15.5478   10.0350   17.6042 C   0  0  0  0  0  0  0  0  0  0  0  0
   14.2369   10.0826   17.9844 C   0  0  0  0  0  0  0  0  0  0  0  0
   13.7019   11.2991   18.4203 C   0  0  0  0  0  0  0  0  0  0  0  0
   14.5466   12.4019   18.5009 C   0  0  0  0  0  0  0  0  0  0  0  0
   15.8455   12.3179   18.1873 C   0  0  0  0  0  0  0  0  0  0  0  0
   16.3770   11.1390   17.8300 C   0  0  0  0  0  0  0  0  0  0  0  0
   17.8766   15.7902    9.6454 C   0  0  1  0  0  0  0  0  0  0  0  0
   18.1791   16.7133   10.7840 C   0  0  0  0  0  0  0  0  0  0  0  0
   18.0092   14.4243    9.9998 O   0  0  0  0  0  0  0  0  0  0  0  0
   19.5166   13.8227    9.7831 P   0  0  1  0  0  0  0  0  0  0  0  0
   20.4819   14.8808   10.1107 O   0  0  0  0  0  0  0  0  0  0  0  0
   19.6274   12.6358   10.9110 O   0  0  0  0  0  0  0  0  0  0  0  0
   19.7596   13.2345    8.3395 O   0  0  0  0  0  0  0  0  0  0  0  0
   18.9481   17.5556    5.9171 C   0  0  0  0  0  0  0  0  0  0  0  0
   19.2015   18.5058    5.1686 O   0  0  0  0  0  0  0  0  0  0  0  0
   19.8776   16.9902    6.5271 O   0  0  0  0  0  0  0  0  0  0  0  0
 24 25  1  6
 24 22  1  0
 24 26  1  0
 22 23  2  0
 22 21  1  0
 26 27  1  0
 27 28  4  0
 27 32  4  0
 28 29  4  0
 32 31  4  0
 29 30  4  0
 31 30  4  0
 21 17  1  0
 21 20  1  0
 17 15  1  1
 17 18  1  0
 15 16  2  0
 15 14  1  0
 18 19  1  0
 19 20  1  0
 14 12  1  0
 12 10  1  0
 12 13  1  6
 10 11  2  0
 10  9  1  0
  8  9  1  6
  8 33  1  0
  8  6  1  0
 33 34  1  1
 33 35  1  0
 35 36  1  0
 36 38  1  1
 36 37  2  0
 36 39  1  0
  6  7  2  0
  6  5  1  0
  4  5  1  1
  4 40  1  0
  4  2  1  0
 40 41  2  0
 40 42  1  0
  2  1  1  6
  2  3  1  0
M  CHG  1  25   1
M  END
$$$$
