
     RDKit          3D

 21 23  0  0  0  0  0  0  0  0999 V2000
   64.9210   31.5340   28.5786 O   0  0  0  0  0  0  0  0  0  0  0  0
   64.7369   32.2492   27.4460 C   0  0  0  0  0  0  0  0  0  0  0  0
   65.8787   32.6120   26.6952 C   0  0  0  0  0  0  0  0  0  0  0  0
   65.6990   33.2586   25.4701 C   0  0  0  0  0  0  0  0  0  0  0  0
   64.4232   33.6064   25.0569 C   0  0  0  0  0  0  0  0  0  0  0  0
   64.2239   34.4894   23.8959 C   0  0  0  0  0  0  0  0  0  0  0  0
   64.0426   34.1098   22.6380 N   0  0  0  0  0  0  0  0  0  0  0  0
   64.0243   35.1934   21.8373 N   0  0  0  0  0  0  0  0  0  0  0  0
   64.2203   36.3197   22.6012 C   0  0  0  0  0  0  0  0  0  0  0  0
   64.2910   37.9519   22.1659 S   0  0  0  0  0  0  0  0  0  0  0  0
   64.5423   35.8469   23.8703 N   0  0  0  0  0  0  0  0  0  0  0  0
   65.3476   36.5447   24.8026 C   0  0  0  0  0  0  0  0  0  0  0  0
   64.8485   37.5969   25.5052 C   0  0  0  0  0  0  0  0  0  0  0  0
   65.7009   38.3211   26.4229 C   0  0  0  0  0  0  0  0  0  0  0  0
   67.0177   37.9250   26.5675 C   0  0  0  0  0  0  0  0  0  0  0  0
   67.5126   36.8476   25.8113 C   0  0  0  0  0  0  0  0  0  0  0  0
   66.7022   36.2438   24.8462 C   0  0  0  0  0  0  0  0  0  0  0  0
   67.2983   35.5300   23.8332 F   0  0  0  0  0  0  0  0  0  0  0  0
   63.2750   33.2354   25.7829 C   0  0  0  0  0  0  0  0  0  0  0  0
   62.0584   33.3351   25.2797 O   0  0  0  0  0  0  0  0  0  0  0  0
   63.4794   32.5925   27.0267 C   0  0  0  0  0  0  0  0  0  0  0  0
 21  2  4  0
  2  3  4  0
  2  1  1  0
 19 21  4  0
  5 19  4  0
 19 20  1  0
  6  5  1  0
  6  7  4  0
 11  6  4  0
  9  8  4  0
 11  9  4  0
  9 10  2  0
 12 17  4  0
 12 11  1  0
 12 13  4  0
 17 16  4  0
 17 18  1  0
 16 15  4  0
 15 14  4  0
 14 13  4  0
  5  4  4  0
  4  3  4  0
  7  8  4  0
M  END
$$$$
