
     RDKit          3D

 76 78  0  0  0  0  0  0  0  0999 V2000
   50.2385  -30.9700   -4.0039 H   0  0  0  0  0  0  0  0  0  0  0  0
   51.1016  -30.9759   -4.7534 N   0  0  0  0  0  0  0  0  0  0  0  0
   52.0316  -30.0799   -4.3323 C   0  0  0  0  0  0  0  0  0  0  0  0
   52.2569  -29.8697   -2.9758 N   0  0  0  0  0  0  0  0  0  0  0  0
   52.7615  -29.4192   -5.2543 N   0  0  0  0  0  0  0  0  0  0  0  0
   52.2719  -29.0626   -6.6281 C   0  0  0  0  0  0  0  0  0  0  0  0
   53.2444  -28.2646   -7.4627 C   0  0  0  0  0  0  0  0  0  0  0  0
   53.6120  -29.1251   -8.6925 C   0  0  0  0  0  0  0  0  0  0  0  0
   53.8279  -30.5969   -8.3564 C   0  0  1  0  0  0  0  0  0  0  0  0
   54.2539  -30.7660   -6.9325 N   0  0  0  0  0  0  0  0  0  0  0  0
   53.3623  -30.4605   -5.8788 C   0  0  0  0  0  0  0  0  0  0  0  0
   52.1272  -30.4643   -6.1049 O   0  0  0  0  0  0  0  0  0  0  0  0
   53.7846  -30.5561   -4.5340 C   0  0  2  0  0  0  0  0  0  0  0  0
   55.1414  -30.0087   -4.4207 N   0  0  0  0  0  0  0  0  0  0  0  0
   53.7228  -31.9766   -4.0197 C   0  0  0  0  0  0  0  0  0  0  0  0
   54.9878  -32.2630   -3.1644 C   0  0  0  0  0  0  0  0  0  0  0  0
   55.1431  -31.2839   -2.0115 C   0  0  0  0  0  0  0  0  0  0  0  0
   56.0713  -31.9451   -1.0059 C   0  0  0  0  0  0  0  0  0  0  0  0
   55.5350  -33.3114   -0.7405 N   0  0  0  0  0  0  0  0  0  0  0  0
   56.3439  -34.3870   -0.4849 C   0  0  0  0  0  0  0  0  0  0  0  0
   57.5862  -34.2926   -0.6312 O   0  0  0  0  0  0  0  0  0  0  0  0
   55.7872  -35.6422   -0.2470 C   0  0  0  0  0  0  0  0  0  0  0  0
   55.6544  -36.4167   -1.5729 C   0  0  0  0  0  0  0  0  0  0  0  0
   55.1023  -37.7639   -1.3411 N   0  0  2  0  0  0  0  0  0  0  0  0
   55.0571  -38.5451   -2.5697 C   0  0  0  0  0  0  0  0  0  0  0  0
   54.6488  -39.9741   -2.2903 C   0  0  0  0  0  0  0  0  0  0  0  0
   53.7924  -40.0660   -1.0622 N   0  0  2  0  0  0  0  0  0  0  0  0
   53.0241  -41.3199   -0.9203 C   0  0  0  0  0  0  0  0  0  0  0  0
   52.8725  -42.1558   -2.2245 C   0  0  0  0  0  0  0  0  0  0  0  0
   51.9695  -41.6909   -3.1853 C   0  0  0  0  0  0  0  0  0  0  0  0
   52.4093  -40.9940   -4.1029 O   0  0  0  0  0  0  0  0  0  0  0  0
   50.6744  -42.2230   -3.3460 N   0  0  0  0  0  0  0  0  0  0  0  0
   49.7964  -41.7012   -4.4698 C   0  0  0  0  0  0  0  0  0  0  0  0
   48.5764  -40.8295   -4.0326 C   0  0  0  0  0  0  0  0  0  0  0  0
   48.1608  -39.9692   -5.3021 C   0  0  0  0  0  0  0  0  0  0  0  0
   46.7580  -39.3490   -5.1543 C   0  0  0  0  0  0  0  0  0  0  0  0
   46.5898  -38.2067   -6.2015 C   0  0  2  0  0  0  0  0  0  0  0  0
   46.8781  -38.6537   -7.5129 C   0  0  0  0  0  0  0  0  0  0  0  0
   47.8198  -39.4050   -7.6598 O   0  0  0  0  0  0  0  0  0  0  0  0
   45.9226  -38.3734   -8.4808 N   0  0  0  0  0  0  0  0  0  0  0  0
   44.4999  -38.7366   -8.3500 C   0  0  0  0  0  0  0  0  0  0  0  0
   44.2488  -38.9209   -6.9316 C   0  0  0  0  0  0  0  0  0  0  0  0
   44.8569  -38.1540   -5.9617 C   0  0  0  0  0  0  0  0  0  0  0  0
   44.6222  -38.3290   -4.6032 C   0  0  0  0  0  0  0  0  0  0  0  0
   43.8142  -39.3692   -4.1152 C   0  0  0  0  0  0  0  0  0  0  0  0
   43.9090  -39.8237   -2.7864 C   0  0  0  0  0  0  0  0  0  0  0  0
   44.1172  -41.1140   -2.5477 N   0  0  0  0  0  0  0  0  0  0  0  0
   43.6405  -38.9573   -1.8063 N   0  0  0  0  0  0  0  0  0  0  0  0
   44.2288  -37.9340   -1.9998 H   0  0  0  0  0  0  0  0  0  0  0  0
   43.1056  -40.1072   -5.0819 C   0  0  0  0  0  0  0  0  0  0  0  0
   43.3068  -39.8917   -6.4578 C   0  0  0  0  0  0  0  0  0  0  0  0
   47.5491  -37.0851   -5.9335 N   0  0  0  0  0  0  0  0  0  0  0  0
   47.8143  -36.0249   -6.8281 C   0  0  0  0  0  0  0  0  0  0  0  0
   47.0936  -35.8979   -7.7778 O   0  0  0  0  0  0  0  0  0  0  0  0
   48.6856  -34.9591   -6.4172 C   0  0  1  0  0  0  0  0  0  0  0  0
   49.7916  -35.5333   -5.4209 C   0  0  1  0  0  0  0  0  0  0  0  0
   49.4545  -37.0032   -5.0144 C   0  0  0  0  0  0  0  0  0  0  0  0
   51.2014  -35.5729   -6.0651 C   0  0  0  0  0  0  0  0  0  0  0  0
   49.9050  -34.6876   -4.1514 C   0  0  0  0  0  0  0  0  0  0  0  0
   49.3977  -34.3416   -7.5716 N   0  0  0  0  0  0  0  0  0  0  0  0
   50.7831  -34.2106   -7.6810 C   0  0  0  0  0  0  0  0  0  0  0  0
   51.4349  -34.3962   -6.6502 O   0  0  0  0  0  0  0  0  0  0  0  0
   51.3392  -33.4940   -8.7776 C   0  0  1  0  0  0  0  0  0  0  0  0
   50.3047  -32.5760   -9.4936 C   0  0  0  0  0  0  0  0  0  0  0  0
   49.3641  -33.4124  -10.3996 C   0  0  0  0  0  0  0  0  0  0  0  0
   49.7917  -33.3147  -11.8554 C   0  0  0  0  0  0  0  0  0  0  0  0
   48.6984  -33.2921  -12.8222 N   0  0  0  0  0  0  0  0  0  0  0  0
   48.7710  -33.6718  -14.1262 C   0  0  0  0  0  0  0  0  0  0  0  0
   49.3824  -34.8101  -14.4676 N   0  0  0  0  0  0  0  0  0  0  0  0
   48.1576  -32.9627  -15.0614 N   0  0  0  0  0  0  0  0  0  0  0  0
   46.9743  -33.3119  -15.0558 H   0  0  0  0  0  0  0  0  0  0  0  0
   52.5391  -32.7202   -8.3500 N   0  0  0  0  0  0  0  0  0  0  0  0
   52.6754  -31.3744   -8.6987 C   0  0  0  0  0  0  0  0  0  0  0  0
   51.6267  -30.7713   -9.0704 O   0  0  0  0  0  0  0  0  0  0  0  0
   52.9035  -38.9027   -0.9277 C   0  0  0  0  0  0  0  0  0  0  0  0
   53.7526  -37.6275   -0.7744 C   0  0  0  0  0  0  0  0  0  0  0  0
 13 14  1  1
 13 11  1  0
 15 13  1  0
 11 12  2  0
 11 10  1  0
 16 15  1  0
 17 16  1  0
 18 17  1  0
 19 18  1  0
 20 19  1  0
 10  9  1  0
  9 73  1  0
  9  8  1  6
 73 74  2  0
 72 73  1  0
  8  7  1  0
  7  6  1  0
  6  5  1  0
  5  3  1  0
  3  2  2  0
  3  4  1  0
 63 72  1  0
 61 63  1  0
 63 64  1  6
 61 62  2  0
 60 61  1  0
 64 65  1  0
 65 66  1  0
 66 67  1  0
 67 68  1  0
 68 69  1  0
 68 70  2  0
 55 60  1  1
 55 56  1  0
 53 55  1  0
 56 57  1  1
 56 58  1  0
 56 59  1  0
 53 54  2  0
 52 53  1  0
 37 52  1  0
 37 38  1  1
 36 37  1  0
 38 39  2  0
 38 40  1  0
 35 36  1  0
 34 35  1  0
 33 34  1  0
 32 33  1  0
 30 32  1  0
 40 41  1  0
 41 42  1  0
 42 43  4  0
 42 51  4  0
 43 44  4  0
 44 45  4  0
 45 46  1  0
 50 45  4  0
 46 48  2  0
 46 47  1  0
 51 50  4  0
 22 20  1  0
 20 21  2  0
 23 22  1  0
 24 23  1  6
 26 25  1  0
 25 24  1  0
 27 26  1  6
 28 29  1  0
 27 28  1  0
 29 30  1  0
 30 31  2  0
 75 76  1  0
 75 27  1  0
 76 24  1  0
  2  1  1  0
 70 71  1  0
 48 49  1  0
M  CHG  3  14   1  24   1  27   1
M  END
$$$$
