
     RDKit          3D

 42 43  0  0  0  0  0  0  0  0999 V2000
   16.8884   18.1355    3.9898 C   0  0  0  0  0  0  0  0  0  0  0  0
   16.3703   17.9930    5.3212 C   0  0  1  0  0  0  0  0  0  0  0  0
   14.8982   17.5886    5.3620 C   0  0  0  0  0  0  0  0  0  0  0  0
   17.2159   17.0068    6.2078 C   0  0  2  0  0  0  0  0  0  0  0  0
   16.9312   17.0735    7.6408 N   0  0  0  0  0  0  0  0  0  0  0  0
   15.9305   16.4159    8.2267 C   0  0  0  0  0  0  0  0  0  0  0  0
   14.8026   16.4252    7.7409 O   0  0  0  0  0  0  0  0  0  0  0  0
   16.1096   16.0018    9.6874 C   0  0  1  0  0  0  0  0  0  0  0  0
   15.3791   14.7243    9.9058 N   0  0  0  0  0  0  0  0  0  0  0  0
   14.5309   14.5402   10.8653 C   0  0  0  0  0  0  0  0  0  0  0  0
   13.9346   15.4911   11.4475 O   0  0  0  0  0  0  0  0  0  0  0  0
   13.8973   13.1578   10.9353 C   0  0  2  0  0  0  0  0  0  0  0  0
   12.7841   12.9572    9.9801 C   0  0  0  0  0  0  0  0  0  0  0  0
   13.4329   12.8528   12.3006 N   0  0  0  0  0  0  0  0  0  0  0  0
   14.1290   12.1415   13.1802 C   0  0  0  0  0  0  0  0  0  0  0  0
   15.3684   12.1975   13.2500 O   0  0  0  0  0  0  0  0  0  0  0  0
   13.3509   11.4336   14.2440 C   0  0  1  0  0  0  0  0  0  0  0  0
   11.9918   10.9192   13.6987 C   0  0  0  0  0  0  0  0  0  0  0  0
   12.2969    9.5412   13.1719 C   0  0  0  0  0  0  0  0  0  0  0  0
   13.3502    8.9602   14.0748 C   0  0  0  0  0  0  0  0  0  0  0  0
   14.0105   10.1605   14.6589 N   0  0  0  0  0  0  0  0  0  0  0  0
   14.9025   10.1980   15.5960 C   0  0  0  0  0  0  0  0  0  0  0  0
   15.2914   11.2817   16.1592 O   0  0  0  0  0  0  0  0  0  0  0  0
   15.1786    8.9027   16.3660 C   0  0  2  0  0  0  0  0  0  0  0  0
   13.9931    8.0407   16.3175 N   0  0  0  0  0  0  0  0  0  0  0  0
   15.6046    9.1883   17.8267 C   0  0  0  0  0  0  0  0  0  0  0  0
   15.1584   10.4979   18.3423 C   0  0  0  0  0  0  0  0  0  0  0  0
   16.0063   11.6007   18.4262 C   0  0  0  0  0  0  0  0  0  0  0  0
   15.5381   12.8805   18.4193 C   0  0  0  0  0  0  0  0  0  0  0  0
   14.1972   13.1297   18.4288 C   0  0  0  0  0  0  0  0  0  0  0  0
   13.3054   12.0871   18.4800 C   0  0  0  0  0  0  0  0  0  0  0  0
   13.7545   10.7567   18.4424 C   0  0  0  0  0  0  0  0  0  0  0  0
   17.6222   15.8172    9.9878 C   0  0  1  0  0  0  0  0  0  0  0  0
   17.7722   15.7664   11.5305 C   0  0  0  0  0  0  0  0  0  0  0  0
   17.9985   14.6055    9.3836 O   0  0  0  0  0  0  0  0  0  0  0  0
   19.3255   13.8456    9.8567 P   0  0  2  0  0  0  0  0  0  0  0  0
   19.6325   14.1793   11.3045 O   0  0  0  0  0  0  0  0  0  0  0  0
   20.4401   14.3600    8.8790 O   0  0  0  0  0  0  0  0  0  0  0  0
   19.0884   12.2570    9.7271 O   0  0  0  0  0  0  0  0  0  0  0  0
   18.6745   17.1355    5.9054 C   0  0  0  0  0  0  0  0  0  0  0  0
   19.0508   17.5619    4.7729 O   0  0  0  0  0  0  0  0  0  0  0  0
   19.4997   17.1824    6.8199 O   0  0  0  0  0  0  0  0  0  0  0  0
 24 25  1  6
 24 22  1  0
 24 26  1  0
 22 23  2  0
 22 21  1  0
 26 27  1  0
 27 28  4  0
 27 32  4  0
 28 29  4  0
 32 31  4  0
 29 30  4  0
 31 30  4  0
 21 17  1  0
 21 20  1  0
 17 15  1  1
 17 18  1  0
 15 16  2  0
 15 14  1  0
 18 19  1  0
 19 20  1  0
 14 12  1  0
 12 10  1  0
 12 13  1  6
 10 11  2  0
 10  9  1  0
  8  9  1  6
  8 33  1  0
  8  6  1  0
 33 34  1  1
 33 35  1  0
 35 36  1  0
 36 38  1  1
 36 37  2  0
 36 39  1  0
  6  7  2  0
  6  5  1  0
  4  5  1  1
  4 40  1  0
  4  2  1  0
 40 41  2  0
 40 42  1  0
  2  1  1  6
  2  3  1  0
M  CHG  1  25   1
M  END
$$$$
