
     RDKit          3D

 42 43  0  0  0  0  0  0  0  0999 V2000
   15.2410   17.8950    4.9530 C   0  0  0  0  0  0  0  0  0  0  0  0
   16.6760   18.3290    4.8610 C   0  0  1  0  0  0  0  0  0  0  0  0
   16.8650   19.7340    5.4170 C   0  0  0  0  0  0  0  0  0  0  0  0
   17.6070   17.3260    5.5850 C   0  0  2  0  0  0  0  0  0  0  0  0
   17.3090   17.2080    7.0140 N   0  0  0  0  0  0  0  0  0  0  0  0
   16.7490   16.1180    7.5240 C   0  0  0  0  0  0  0  0  0  0  0  0
   16.4380   15.1470    6.8250 O   0  0  0  0  0  0  0  0  0  0  0  0
   16.4890   16.0980    9.0320 C   0  0  1  0  0  0  0  0  0  0  0  0
   15.4150   15.1410    9.3120 N   0  0  0  0  0  0  0  0  0  0  0  0
   14.4140   15.3800   10.1570 C   0  0  0  0  0  0  0  0  0  0  0  0
   14.3610   16.3630   10.9020 O   0  0  0  0  0  0  0  0  0  0  0  0
   13.2800   14.3570   10.1610 C   0  0  2  0  0  0  0  0  0  0  0  0
   12.1020   14.8890    9.3610 C   0  0  0  0  0  0  0  0  0  0  0  0
   12.8500   14.0090   11.5090 N   0  0  0  0  0  0  0  0  0  0  0  0
   13.5320   13.1460   12.2620 C   0  0  0  0  0  0  0  0  0  0  0  0
   14.5940   12.6380   11.9010 O   0  0  0  0  0  0  0  0  0  0  0  0
   12.9050   12.8350   13.6140 C   0  0  2  0  0  0  0  0  0  0  0  0
   13.2840   13.9020   14.6450 C   0  0  0  0  0  0  0  0  0  0  0  0
   14.5740   13.4030   15.2160 C   0  0  0  0  0  0  0  0  0  0  0  0
   14.4330   11.9010   15.2680 C   0  0  0  0  0  0  0  0  0  0  0  0
   13.4670   11.6120   14.1920 N   0  0  0  0  0  0  0  0  0  0  0  0
   13.1090   10.4210   13.7220 C   0  0  0  0  0  0  0  0  0  0  0  0
   12.2730   10.2840   12.8270 O   0  0  0  0  0  0  0  0  0  0  0  0
   13.7790    9.1980   14.3470 C   0  0  1  0  0  0  0  0  0  0  0  0
   12.8920    8.0390   14.3070 N   0  0  0  0  0  0  0  0  0  0  0  0
   15.1040    8.8900   13.6370 C   0  0  0  0  0  0  0  0  0  0  0  0
   14.9390    8.2920   12.2660 C   0  0  0  0  0  0  0  0  0  0  0  0
   14.7970    9.1030   11.1500 C   0  0  0  0  0  0  0  0  0  0  0  0
   14.6470    8.5510    9.8880 C   0  0  0  0  0  0  0  0  0  0  0  0
   14.6420    7.1760    9.7320 C   0  0  0  0  0  0  0  0  0  0  0  0
   14.7850    6.3600   10.8350 C   0  0  0  0  0  0  0  0  0  0  0  0
   14.9350    6.9160   12.0920 C   0  0  0  0  0  0  0  0  0  0  0  0
   17.7750   15.7340    9.7960 C   0  0  1  0  0  0  0  0  0  0  0  0
   17.5810   15.9300   11.2980 C   0  0  0  0  0  0  0  0  0  0  0  0
   18.0200   14.3550    9.4700 O   0  0  0  0  0  0  0  0  0  0  0  0
   19.4350   13.6980    9.8890 P   0  0  1  0  0  0  0  0  0  0  0  0
   19.4690   13.3730   11.3370 O   0  0  0  0  0  0  0  0  0  0  0  0
   19.5240   12.3980    8.9920 O   0  0  0  0  0  0  0  0  0  0  0  0
   20.5820   14.7340    9.5260 O   0  0  0  0  0  0  0  0  0  0  0  0
   19.0530   17.7030    5.3430 C   0  0  0  0  0  0  0  0  0  0  0  0
   19.8130   17.9970    6.2750 O   0  0  0  0  0  0  0  0  0  0  0  0
   19.4800   17.7270    4.1810 O   0  0  0  0  0  0  0  0  0  0  0  0
 24 25  1  6
 24 22  1  0
 24 26  1  0
 22 23  2  0
 22 21  1  0
 26 27  1  0
 27 28  2  0
 27 32  1  0
 28 29  1  0
 32 31  2  0
 29 30  2  0
 31 30  1  0
 21 17  1  0
 21 20  1  0
 17 15  1  6
 17 18  1  0
 15 16  2  0
 15 14  1  0
 18 19  1  0
 19 20  1  0
 14 12  1  0
 12 10  1  0
 12 13  1  6
 10 11  2  0
 10  9  1  0
  8  9  1  6
  8 33  1  0
  8  6  1  0
 33 34  1  1
 33 35  1  0
 35 36  1  0
 36 38  1  6
 36 37  2  0
 36 39  1  0
  6  7  2  0
  6  5  1  0
  4  5  1  1
  4 40  1  0
  4  2  1  0
 40 41  2  0
 40 42  1  0
  2  1  1  1
  2  3  1  0
M  CHG  1  25   1
M  END
$$$$
