
     RDKit          3D

 78 83  0  0  0  0  0  0  0  0999 V2000
  -41.1720  -11.6100   62.9520 C   0  0  0  0  0  0  0  0  0  0  0  0
  -40.2940  -10.7450   63.8100 C   0  0  0  0  0  0  0  0  0  0  0  0
  -39.3440  -11.2010   64.4440 O   0  0  0  0  0  0  0  0  0  0  0  0
  -40.6390   -9.4690   63.8650 N   0  0  0  0  0  0  0  0  0  0  0  0
  -39.8660   -8.4510   64.5650 C   0  0  2  0  0  0  0  0  0  0  0  0
  -40.8620   -7.3840   64.9840 C   0  0  1  0  0  0  0  0  0  0  0  0
  -41.7360   -7.9340   65.9840 O   0  0  0  0  0  0  0  0  0  0  0  0
  -40.1590   -6.1500   65.5370 C   0  0  0  0  0  0  0  0  0  0  0  0
  -38.9840   -5.7010   64.6680 C   0  0  2  0  0  0  0  0  0  0  0  0
  -38.2060   -4.6690   65.3040 O   0  0  0  0  0  0  0  0  0  0  0  0
  -37.4500   -4.9340   66.4600 C   0  0  1  0  0  0  0  0  0  0  0  0
  -35.9710   -5.0790   66.1290 C   0  0  1  0  0  0  0  0  0  0  0  0
  -35.5280   -3.9670   65.3250 O   0  0  0  0  0  0  0  0  0  0  0  0
  -35.1410   -4.2610   64.0170 C   0  0  2  0  0  0  0  0  0  0  0  0
  -33.8290   -4.7070   64.0050 O   0  0  0  0  0  0  0  0  0  0  0  0
  -33.3590   -5.0980   62.7000 C   0  0  2  0  0  0  0  0  0  0  0  0
  -32.0130   -5.7180   62.9240 C   0  0  0  0  0  0  0  0  0  0  0  0
  -32.2090   -6.9330   63.6980 O   0  0  0  0  0  0  0  0  0  0  0  0
  -33.3490   -3.9030   61.7560 C   0  0  2  0  0  0  0  0  0  0  0  0
  -32.4200   -2.9520   62.2570 O   0  0  0  0  0  0  0  0  0  0  0  0
  -34.7680   -3.3460   61.7210 C   0  0  2  0  0  0  0  0  0  0  0  0
  -34.8730   -2.1350   60.9500 O   0  0  0  0  0  0  0  0  0  0  0  0
  -35.5510   -2.2280   59.7260 C   0  0  2  0  0  0  0  0  0  0  0  0
  -34.9020   -3.1540   58.8490 O   0  0  0  0  0  0  0  0  0  0  0  0
  -35.7070   -3.4240   57.6610 C   0  0  2  0  0  0  0  0  0  0  0  0
  -35.0100   -4.5230   56.9030 C   0  0  0  0  0  0  0  0  0  0  0  0
  -35.0640   -5.7420   57.5890 O   0  0  0  0  0  0  0  0  0  0  0  0
  -35.8710   -2.1180   56.8510 C   0  0  2  0  0  0  0  0  0  0  0  0
  -34.6090   -1.6720   56.3500 O   0  0  0  0  0  0  0  0  0  0  0  0
  -36.4540   -1.0350   57.7730 C   0  0  2  0  0  0  0  0  0  0  0  0
  -36.5510    0.2390   57.1440 O   0  0  0  0  0  0  0  0  0  0  0  0
  -35.5990   -0.8820   59.0340 C   0  0  1  0  0  0  0  0  0  0  0  0
  -36.1910    0.0610   59.9440 O   0  0  0  0  0  0  0  0  0  0  0  0
  -35.5800    1.3520   60.0350 C   0  0  2  0  0  0  0  0  0  0  0  0
  -34.2300    1.3550   60.5490 O   0  0  0  0  0  0  0  0  0  0  0  0
  -34.0990    0.8130   61.8860 C   0  0  1  0  0  0  0  0  0  0  0  0
  -32.6180    0.8440   62.2000 C   0  0  0  0  0  0  0  0  0  0  0  0
  -34.9430    1.5920   62.8810 C   0  0  1  0  0  0  0  0  0  0  0  0
  -34.3860    2.8970   63.0950 O   0  0  0  0  0  0  0  0  0  0  0  0
  -36.3630    1.7590   62.3790 C   0  0  1  0  0  0  0  0  0  0  0  0
  -36.9790    2.7940   63.1390 O   0  0  0  0  0  0  0  0  0  0  0  0
  -36.4460    2.2150   60.9430 C   0  0  2  0  0  0  0  0  0  0  0  0
  -37.8120    2.1870   60.5180 O   0  0  0  0  0  0  0  0  0  0  0  0
  -35.2610   -3.0390   63.1370 C   0  0  1  0  0  0  0  0  0  0  0  0
  -36.6300   -2.6070   63.1220 N   0  0  0  0  0  0  0  0  0  0  0  0
  -37.1440   -1.6380   63.8780 C   0  0  0  0  0  0  0  0  0  0  0  0
  -38.6340   -1.5270   63.8700 C   0  0  0  0  0  0  0  0  0  0  0  0
  -36.4520   -0.8980   64.5580 O   0  0  0  0  0  0  0  0  0  0  0  0
  -35.1890   -5.1460   67.4190 C   0  0  1  0  0  0  0  0  0  0  0  0
  -33.7180   -5.2390   67.2010 C   0  0  0  0  0  0  0  0  0  0  0  0
  -33.0510   -5.0720   68.4590 O   0  0  0  0  0  0  0  0  0  0  0  0
  -35.4650   -3.9370   68.2010 O   0  0  0  0  0  0  0  0  0  0  0  0
  -36.8290   -3.8800   68.6060 C   0  0  1  0  0  0  0  0  0  0  0  0
  -37.1380   -2.7890   69.4610 O   0  0  0  0  0  0  0  0  0  0  0  0
  -36.8480   -2.8340   70.8710 C   0  0  2  0  0  0  0  0  0  0  0  0
  -38.0960   -2.7920   71.7710 C   0  0  1  0  0  0  0  0  0  0  0  0
  -38.9100   -4.0630   71.8930 C   0  0  0  0  0  0  0  0  0  0  0  0
  -38.1640   -5.2310   71.5820 O   0  0  0  0  0  0  0  0  0  0  0  0
  -37.6920   -2.4720   73.1220 O   0  0  0  0  0  0  0  0  0  0  0  0
  -37.1000   -1.1820   73.2000 C   0  0  1  0  0  0  0  0  0  0  0  0
  -37.0330   -0.8650   74.5350 O   0  0  0  0  0  0  0  0  0  0  0  0
  -35.7750   -1.2370   72.4350 C   0  0  2  0  0  0  0  0  0  0  0  0
  -35.1130    0.0120   72.5350 O   0  0  0  0  0  0  0  0  0  0  0  0
  -36.0570   -1.5330   70.9910 C   0  0  1  0  0  0  0  0  0  0  0  0
  -34.8730   -1.5570   70.1570 O   0  0  0  0  0  0  0  0  0  0  0  0
  -37.7020   -3.7270   67.3840 C   0  0  2  0  0  0  0  0  0  0  0  0
  -39.0730   -3.6800   67.7590 O   0  0  0  0  0  0  0  0  0  0  0  0
  -39.3830   -5.0070   63.3510 C   0  0  0  0  0  0  0  0  0  0  0  0
  -40.5640   -4.6290   63.2160 O   0  0  0  0  0  0  0  0  0  0  0  0
  -38.5510   -4.8710   62.4210 O   0  0  0  0  0  0  0  0  0  0  0  0
  -38.1060   -6.8200   64.4900 O   0  0  0  0  0  0  0  0  0  0  0  0
  -38.7390   -7.8610   63.7110 C   0  0  1  0  0  0  0  0  0  0  0  0
  -37.6310   -8.8170   63.3030 C   0  0  2  0  0  0  0  0  0  0  0  0
  -37.1700   -9.6040   64.4150 O   0  0  0  0  0  0  0  0  0  0  0  0
  -36.3910   -8.1130   62.7080 C   0  0  2  0  0  0  0  0  0  0  0  0
  -36.7340   -7.1520   61.7080 O   0  0  0  0  0  0  0  0  0  0  0  0
  -35.4040   -9.0750   62.0930 C   0  0  0  0  0  0  0  0  0  0  0  0
  -34.1480   -8.4310   61.8850 O   0  0  0  0  0  0  0  0  0  0  0  0
  9 68  1  0
 68 70  1  0
 68 69  2  0
  9  8  1  0
  9 71  1  0
  9 10  1  1
  8  6  1  0
  6  5  1  0
  6  7  1  1
 72  5  1  0
  5  4  1  6
 72 73  1  0
 72 71  1  1
 73 75  1  0
 73 74  1  1
 75 77  1  0
 75 76  1  6
 77 78  1  0
  2  1  1  0
  4  2  1  0
  2  3  2  0
 53 66  1  0
 53 52  1  0
 53 54  1  1
 66 11  1  0
 66 67  1  1
 11 12  1  0
 11 10  1  6
 49 12  1  0
 12 13  1  6
 49 50  1  6
 52 49  1  0
 50 51  1  0
 14 13  1  1
 14 44  1  0
 14 15  1  0
 44 21  1  0
 44 45  1  6
 21 19  1  0
 21 22  1  6
 16 19  1  0
 19 20  1  1
 16 17  1  1
 15 16  1  0
 17 18  1  0
 46 47  1  0
 45 46  1  0
 46 48  2  0
 23 22  1  1
 23 32  1  0
 23 24  1  0
 32 30  1  0
 32 33  1  1
 30 28  1  0
 30 31  1  6
 25 28  1  0
 28 29  1  1
 25 26  1  6
 24 25  1  0
 26 27  1  0
 34 33  1  1
 34 42  1  0
 34 35  1  0
 42 40  1  0
 42 43  1  6
 40 38  1  0
 40 41  1  1
 36 38  1  0
 38 39  1  6
 36 37  1  1
 35 36  1  0
 64 62  1  0
 62 60  1  0
 62 63  1  6
 55 64  1  0
 64 65  1  6
 55 56  1  0
 55 54  1  6
 56 57  1  1
 56 59  1  0
 57 58  1  0
 60 61  1  1
 60 59  1  0
M  END
$$$$
