
     RDKit          3D

 14 14  0  0  0  0  0  0  0  0999 V2000
  -22.6840   18.7050  -14.6040 C   0  0  0  0  0  0  0  0  0  0  0  0
  -22.7360   18.8390  -13.1960 O   0  0  0  0  0  0  0  0  0  0  0  0
  -22.8410   17.6320  -12.4750 C   0  0  0  0  0  0  0  0  0  0  0  0
  -22.7180   16.4070  -13.1080 C   0  0  0  0  0  0  0  0  0  0  0  0
  -22.8520   15.2480  -12.3440 C   0  0  0  0  0  0  0  0  0  0  0  0
  -22.6990   13.8740  -12.9290 C   0  0  0  0  0  0  0  0  0  0  0  0
  -22.4180   13.6540  -14.2120 C   0  0  0  0  0  0  0  0  0  0  0  0
  -22.2400   12.2130  -14.5930 C   0  0  0  0  0  0  0  0  0  0  0  0
  -22.1960   11.9060  -15.8040 O   0  0  0  0  0  0  0  0  0  0  0  0
  -22.0620   11.3510  -13.6770 O   0  0  0  0  0  0  0  0  0  0  0  0
  -23.0740   15.3190  -10.9850 C   0  0  0  0  0  0  0  0  0  0  0  0
  -23.1920   16.5350  -10.3470 C   0  0  0  0  0  0  0  0  0  0  0  0
  -23.0810   17.6870  -11.1120 C   0  0  0  0  0  0  0  0  0  0  0  0
  -23.1950   18.9260  -10.4710 O   0  0  0  0  0  0  0  0  0  0  0  0
 13 12  2  0
 13  3  1  0
 13 14  1  0
 12 11  1  0
 11  5  2  0
  3  4  2  0
  3  2  1  0
  4  5  1  0
  5  6  1  0
  2  1  1  0
  6  7  2  0
  7  8  1  0
  8  9  2  0
  8 10  1  0
M  END
$$$$
