
     RDKit          3D

 14 14  0  0  0  0  0  0  0  0999 V2000
  -20.7250   18.5200  -14.6566 C   0  0  0  0  0  0  0  0  0  0  0  0
  -21.9692   17.8289  -14.7711 O   0  0  0  0  0  0  0  0  0  0  0  0
  -22.1789   16.9412  -13.6882 C   0  0  0  0  0  0  0  0  0  0  0  0
  -22.2119   15.5389  -13.9093 C   0  0  0  0  0  0  0  0  0  0  0  0
  -22.3491   14.6961  -12.7790 C   0  0  0  0  0  0  0  0  0  0  0  0
  -22.4528   13.2030  -12.8870 C   0  0  0  0  0  0  0  0  0  0  0  0
  -23.0986   12.6576  -13.9147 C   0  0  0  0  0  0  0  0  0  0  0  0
  -22.3853   11.4839  -14.5190 C   0  0  0  0  0  0  0  0  0  0  0  0
  -22.1846   11.5439  -15.7640 O   0  0  0  0  0  0  0  0  0  0  0  0
  -22.3427   10.3643  -13.9452 O   0  0  0  0  0  0  0  0  0  0  0  0
  -22.3813   15.2370  -11.5135 C   0  0  0  0  0  0  0  0  0  0  0  0
  -22.3925   16.6187  -11.3032 C   0  0  0  0  0  0  0  0  0  0  0  0
  -22.3048   17.4327  -12.4191 C   0  0  0  0  0  0  0  0  0  0  0  0
  -22.3034   18.8201  -12.2155 O   0  0  0  0  0  0  0  0  0  0  0  0
 13 12  4  0
 13  3  4  0
 13 14  1  0
 12 11  4  0
 11  5  4  0
  3  4  4  0
  3  2  1  0
  4  5  4  0
  5  6  1  0
  2  1  1  0
  6  7  2  0
  7  8  1  0
  8  9  2  0
  8 10  1  0
M  END
$$$$
