
     RDKit          3D

 13 13  0  0  0  0  0  0  0  0999 V2000
  -22.2170   12.7390  -17.1660 C   0  0  0  0  0  0  0  0  0  0  0  0
  -22.2150   11.8610  -16.0490 O   0  0  0  0  0  0  0  0  0  0  0  0
  -22.4590   12.4080  -14.7760 C   0  0  0  0  0  0  0  0  0  0  0  0
  -22.6250   13.7790  -14.5320 C   0  0  0  0  0  0  0  0  0  0  0  0
  -22.8600   14.2130  -13.2270 C   0  0  0  0  0  0  0  0  0  0  0  0
  -23.0480   15.6780  -12.8940 C   0  0  0  0  0  0  0  0  0  0  0  0
  -22.8850   16.6440  -13.8130 C   0  0  0  0  0  0  0  0  0  0  0  0
  -23.0970   18.0760  -13.3820 C   0  0  0  0  0  0  0  0  0  0  0  0
  -23.0220   18.9760  -14.1990 O   0  0  0  0  0  0  0  0  0  0  0  0
  -22.9420   13.3160  -12.1710 C   0  0  0  0  0  0  0  0  0  0  0  0
  -22.7670   11.9680  -12.4110 C   0  0  0  0  0  0  0  0  0  0  0  0
  -22.5340   11.5270  -13.7030 C   0  0  0  0  0  0  0  0  0  0  0  0
  -22.3590   10.1740  -13.9840 O   0  0  0  0  0  0  0  0  0  0  0  0
  5  4  2  0
  5 10  1  0
  5  6  1  0
  4  3  1  0
  3  2  1  0
  3 12  2  0
  2  1  1  0
 12 13  1  0
 12 11  1  0
 11 10  2  0
  6  7  2  0
  7  8  1  0
  8  9  2  0
M  END
$$$$
