
     RDKit          3D

 11 11  0  0  0  0  0  0  0  0999 V2000
  -22.0320   14.1480  -17.2370 C   0  0  0  0  0  0  0  0  0  0  0  0
  -22.1720   13.2320  -16.1690 O   0  0  0  0  0  0  0  0  0  0  0  0
  -22.3930   13.7840  -14.8900 C   0  0  0  0  0  0  0  0  0  0  0  0
  -22.5500   15.1510  -14.6990 C   0  0  0  0  0  0  0  0  0  0  0  0
  -22.7690   15.6390  -13.4120 C   0  0  0  0  0  0  0  0  0  0  0  0
  -22.9430   17.1260  -13.1790 C   0  0  0  0  0  0  0  0  0  0  0  0
  -22.6800   17.9050  -14.0760 O   0  0  0  0  0  0  0  0  0  0  0  0
  -22.8290   14.7740  -12.3260 C   0  0  0  0  0  0  0  0  0  0  0  0
  -22.6690   13.4110  -12.5160 C   0  0  0  0  0  0  0  0  0  0  0  0
  -22.4560   12.9230  -13.7970 C   0  0  0  0  0  0  0  0  0  0  0  0
  -22.2930   11.5430  -13.9960 O   0  0  0  0  0  0  0  0  0  0  0  0
  5  4  2  0
  5  8  1  0
  5  6  1  0
  4  3  1  0
  3 10  2  0
  3  2  1  0
 10  9  1  0
 10 11  1  0
  9  8  2  0
  6  7  2  0
  2  1  1  0
M  END
$$$$
