
     RDKit          3D

 11 11  0  0  0  0  0  0  0  0999 V2000
  -21.7237   18.8395  -14.1823 C   0  0  0  0  0  0  0  0  0  0  0  0
  -21.6122   17.8801  -13.1656 O   0  0  0  0  0  0  0  0  0  0  0  0
  -21.9325   16.5675  -13.4837 C   0  0  0  0  0  0  0  0  0  0  0  0
  -21.3562   15.4858  -12.8777 C   0  0  0  0  0  0  0  0  0  0  0  0
  -22.0206   14.2471  -12.7909 C   0  0  0  0  0  0  0  0  0  0  0  0
  -21.2358   12.9603  -12.6403 C   0  0  0  0  0  0  0  0  0  0  0  0
  -21.8562   11.8933  -12.7328 O   0  0  0  0  0  0  0  0  0  0  0  0
  -23.3349   14.1897  -13.2168 C   0  0  0  0  0  0  0  0  0  0  0  0
  -23.9161   15.2370  -13.9405 C   0  0  0  0  0  0  0  0  0  0  0  0
  -23.1700   16.3544  -14.2030 C   0  0  0  0  0  0  0  0  0  0  0  0
  -23.3063   17.0381  -15.4364 O   0  0  0  0  0  0  0  0  0  0  0  0
  5  4  4  0
  5  8  4  0
  5  6  1  0
  4  3  4  0
  3 10  4  0
  3  2  1  0
 10  9  4  0
 10 11  1  0
  9  8  4  0
  6  7  2  0
  2  1  1  0
M  END
$$$$
