
     RDKit          3D

 42 42  0  0  0  0  0  0  0  0999 V2000
   34.7940  -14.5360    7.7300 C   0  0  0  0  0  0  0  0  0  0  0  0
   34.2270  -13.6830    8.8730 C   0  0  0  0  0  0  0  0  0  0  0  0
   33.5370  -14.4760    9.9760 C   0  0  2  0  0  0  0  0  0  0  0  0
   32.4860  -15.4400    9.4350 C   0  0  0  0  0  0  0  0  0  0  0  0
   32.8990  -13.5100   10.9920 C   0  0  2  0  0  0  0  0  0  0  0  0
   33.9090  -12.7190   11.7010 N   0  0  0  0  0  0  0  0  0  0  0  0
   32.0650  -14.2710   11.9970 C   0  0  0  0  0  0  0  0  0  0  0  0
   32.6120  -15.0090   12.8180 O   0  0  0  0  0  0  0  0  0  0  0  0
   30.7470  -14.0710   11.9390 N   0  0  0  0  0  0  0  0  0  0  0  0
   29.7880  -14.7840   12.7760 C   0  0  1  0  0  0  0  0  0  0  0  0
   29.1080  -13.8390   13.7780 C   0  0  0  0  0  0  0  0  0  0  0  0
   30.0340  -13.3480   14.8810 C   0  0  0  0  0  0  0  0  0  0  0  0
   29.5620  -13.9800   16.5220 S   0  0  0  0  0  0  0  0  0  0  0  0
   29.9240  -15.7220   16.3240 C   0  0  0  0  0  0  0  0  0  0  0  0
   28.7630  -15.4540   11.8710 C   0  0  0  0  0  0  0  0  0  0  0  0
   28.2890  -14.8460   10.9040 O   0  0  0  0  0  0  0  0  0  0  0  0
   28.4510  -16.7130   12.1760 N   0  0  0  0  0  0  0  0  0  0  0  0
   27.5830  -17.5650   11.3720 C   0  0  2  0  0  0  0  0  0  0  0  0
   26.5970  -18.2560   12.3070 C   0  0  0  0  0  0  0  0  0  0  0  0
   26.9710  -18.6770   13.4070 O   0  0  0  0  0  0  0  0  0  0  0  0
   25.3460  -18.3890   11.8670 N   0  0  0  0  0  0  0  0  0  0  0  0
   24.2980  -19.0790   12.6110 C   0  0  1  0  0  0  0  0  0  0  0  0
   23.1410  -18.1270   12.9360 C   0  0  0  0  0  0  0  0  0  0  0  0
   22.1370  -18.7690   13.7040 O   0  0  0  0  0  0  0  0  0  0  0  0
   23.7860  -20.2790   11.8200 C   0  0  0  0  0  0  0  0  0  0  0  0
   24.0440  -20.4190   10.6230 O   0  0  0  0  0  0  0  0  0  0  0  0
   23.0330  -21.1360   12.5080 N   0  0  0  0  0  0  0  0  0  0  0  0
   22.5020  -22.3800   11.9390 C   0  0  1  0  0  0  0  0  0  0  0  0
   21.5100  -22.0940   10.8080 C   0  0  0  0  0  0  0  0  0  0  0  0
   20.1350  -21.7220   11.2820 C   0  0  0  0  0  0  0  0  0  0  0  0
   19.6500  -22.1940   12.4930 C   0  0  0  0  0  0  0  0  0  0  0  0
   18.3750  -21.8550   12.9270 C   0  0  0  0  0  0  0  0  0  0  0  0
   17.5740  -21.0370   12.1470 C   0  0  0  0  0  0  0  0  0  0  0  0
   18.0480  -20.5630   10.9360 C   0  0  0  0  0  0  0  0  0  0  0  0
   19.3190  -20.9110   10.5090 C   0  0  0  0  0  0  0  0  0  0  0  0
   23.6220  -23.2830   11.4300 C   0  0  0  0  0  0  0  0  0  0  0  0
   24.4680  -23.7350   12.2020 O   0  0  0  0  0  0  0  0  0  0  0  0
   23.7020  -23.5780   10.2370 O   0  0  0  0  0  0  0  0  0  0  0  0
   28.4030  -18.6120   10.5830 C   0  0  1  0  0  0  0  0  0  0  0  0
   27.4970  -19.5230    9.7760 C   0  0  0  0  0  0  0  0  0  0  0  0
   29.4320  -17.9370    9.6710 C   0  0  0  0  0  0  0  0  0  0  0  0
   30.4370  -18.9070    9.0890 C   0  0  0  0  0  0  0  0  0  0  0  0
  5  6  1  1
  5  7  1  0
  5  3  1  0
  7  8  2  0
  7  9  1  0
  3  2  1  0
  3  4  1  6
  2  1  1  0
  9 10  1  0
 10 15  1  0
 10 11  1  1
 15 16  2  0
 15 17  1  0
 11 12  1  0
 12 13  1  0
 13 14  1  0
 18 17  1  1
 18 19  1  0
 18 39  1  0
 19 20  2  0
 19 21  1  0
 39 41  1  0
 39 40  1  6
 41 42  1  0
 21 22  1  0
 22 25  1  0
 22 23  1  6
 25 26  2  0
 25 27  1  0
 23 24  1  0
 27 28  1  0
 28 36  1  0
 28 29  1  6
 36 37  2  0
 36 38  1  0
 29 30  1  0
 30 31  2  0
 30 35  1  0
 31 32  1  0
 35 34  2  0
 32 33  2  0
 34 33  1  0
M  CHG  1   6   1
M  END
$$$$
