
     RDKit          3D

 61 62  0  0  0  0  0  0  0  0999 V2000
   51.9795  -30.3052   -1.5672 H   0  0  0  0  0  0  0  0  0  0  0  0
   51.6020  -30.1590   -0.6310 N   0  0  0  0  0  0  0  0  0  0  0  0
   52.3010  -30.5630    0.4480 C   0  0  0  0  0  0  0  0  0  0  0  0
   51.8190  -30.3620    1.6970 N   0  0  0  0  0  0  0  0  0  0  0  0
   53.4960  -31.1580    0.2730 N   0  0  0  0  0  0  0  0  0  0  0  0
   54.1090  -31.3910   -1.0460 C   0  0  0  0  0  0  0  0  0  0  0  0
   53.7110  -32.7510   -1.6220 C   0  0  0  0  0  0  0  0  0  0  0  0
   54.2800  -32.8550   -3.0580 C   0  0  0  0  0  0  0  0  0  0  0  0
   54.0590  -34.2550   -3.6420 C   0  0  2  0  0  0  0  0  0  0  0  0
   54.7160  -34.3430   -4.9760 N   0  0  0  0  0  0  0  0  0  0  0  0
   54.7220  -35.5720   -5.6620 C   0  0  0  0  0  0  0  0  0  0  0  0
   54.1260  -36.5150   -5.1380 O   0  0  0  0  0  0  0  0  0  0  0  0
   55.3110  -35.6920   -6.9400 C   0  0  0  0  0  0  0  0  0  0  0  0
   56.4010  -36.7920   -7.0080 C   0  0  0  0  0  0  0  0  0  0  0  0
   55.9130  -38.2050   -6.5870 C   0  0  0  0  0  0  0  0  0  0  0  0
   54.9590  -38.7380   -7.4610 C   0  0  0  0  0  0  0  0  0  0  0  0
   55.2700  -39.6090   -8.2740 O   0  0  0  0  0  0  0  0  0  0  0  0
   53.6140  -38.3480   -7.4120 N   0  0  0  0  0  0  0  0  0  0  0  0
   52.7070  -38.9880   -8.3880 C   0  0  0  0  0  0  0  0  0  0  0  0
   51.4330  -38.1880   -8.5770 C   0  0  0  0  0  0  0  0  0  0  0  0
   50.5980  -38.3250   -7.3370 C   0  0  0  0  0  0  0  0  0  0  0  0
   49.1870  -37.9530   -7.6910 C   0  0  0  0  0  0  0  0  0  0  0  0
   48.9940  -36.4600   -7.8450 C   0  0  1  0  0  0  0  0  0  0  0  0
   47.6580  -36.3690   -8.2320 C   0  0  0  0  0  0  0  0  0  0  0  0
   46.7740  -36.4670   -7.3910 O   0  0  0  0  0  0  0  0  0  0  0  0
   47.4160  -36.2790   -9.5600 N   0  0  0  0  0  0  0  0  0  0  0  0
   46.0520  -36.2860  -10.1200 C   0  0  1  0  0  0  0  0  0  0  0  0
   46.0450  -36.0940  -11.6490 C   0  0  0  0  0  0  0  0  0  0  0  0
   46.4740  -34.6890  -12.0310 C   0  0  0  0  0  0  0  0  0  0  0  0
   46.5740  -34.5670  -13.5640 C   0  0  0  0  0  0  0  0  0  0  0  0
   47.4430  -33.3410  -13.8930 C   0  0  0  0  0  0  0  0  0  0  0  0
   47.2080  -32.8350  -15.2560 N   0  0  0  0  0  0  0  0  0  0  0  0
   45.4520  -37.6450   -9.7670 C   0  0  0  0  0  0  0  0  0  0  0  0
   46.1520  -38.6390   -9.8790 O   0  0  0  0  0  0  0  0  0  0  0  0
   44.1850  -37.6820   -9.3160 N   0  0  0  0  0  0  0  0  0  0  0  0
   43.5720  -38.9530   -8.8810 C   0  0  0  0  0  0  0  0  0  0  0  0
   43.6340  -39.0040   -7.4550 C   0  0  0  0  0  0  0  0  0  0  0  0
   42.5340  -38.6970   -6.6570 C   0  0  0  0  0  0  0  0  0  0  0  0
   42.6220  -38.7340   -5.2550 C   0  0  0  0  0  0  0  0  0  0  0  0
   43.8040  -39.0850   -4.6030 C   0  0  0  0  0  0  0  0  0  0  0  0
   43.9090  -39.1310   -3.1880 C   0  0  0  0  0  0  0  0  0  0  0  0
   45.0940  -39.3940   -2.6240 N   0  0  0  0  0  0  0  0  0  0  0  0
   42.8330  -38.8790   -2.4420 N   0  0  0  0  0  0  0  0  0  0  0  0
   41.9437  -38.6554   -2.8887 H   0  0  0  0  0  0  0  0  0  0  0  0
   44.8970  -39.3870   -5.4060 C   0  0  0  0  0  0  0  0  0  0  0  0
   44.8170  -39.3400   -6.8050 C   0  0  0  0  0  0  0  0  0  0  0  0
   49.2550  -35.8420   -6.5170 N   0  0  0  0  0  0  0  0  0  0  0  0
   50.2580  -34.8890   -6.2840 C   0  0  0  0  0  0  0  0  0  0  0  0
   50.9460  -34.4970   -7.2280 O   0  0  0  0  0  0  0  0  0  0  0  0
   50.4830  -34.4050   -4.9840 C   0  0  2  0  0  0  0  0  0  0  0  0
   49.6310  -33.1630   -4.6760 C   0  0  0  0  0  0  0  0  0  0  0  0
   49.8940  -32.6930   -3.2270 C   0  0  0  0  0  0  0  0  0  0  0  0
   49.1600  -33.6090   -2.2240 C   0  0  0  0  0  0  0  0  0  0  0  0
   49.3670  -33.1500   -0.8340 N   0  0  0  0  0  0  0  0  0  0  0  0
   50.2000  -33.7360    0.0610 C   0  0  0  0  0  0  0  0  0  0  0  0
   50.2890  -33.2660    1.3120 N   0  0  0  0  0  0  0  0  0  0  0  0
   50.9280  -34.8070   -0.2780 N   0  0  0  0  0  0  0  0  0  0  0  0
   50.8601  -35.1924   -1.2199 H   0  0  0  0  0  0  0  0  0  0  0  0
   51.9380  -34.1140   -4.8450 N   0  0  0  0  0  0  0  0  0  0  0  0
   52.6820  -34.5430   -3.7330 C   0  0  0  0  0  0  0  0  0  0  0  0
   52.1160  -35.2050   -2.8630 O   0  0  0  0  0  0  0  0  0  0  0  0
 10  9  1  0
 10 11  1  0
  9 60  1  0
  9  8  1  6
 60 61  2  0
 60 59  1  0
  8  7  1  0
  7  6  1  0
  6  5  1  0
  5  3  1  0
  3  4  1  0
  3  2  2  0
 59 50  1  0
 50 48  1  0
 50 51  1  6
 48 49  2  0
 48 47  1  0
 51 52  1  0
 52 53  1  0
 53 54  1  0
 54 55  1  0
 55 57  2  0
 55 56  1  0
 47 23  1  0
 23 24  1  1
 23 22  1  0
 24 25  2  0
 24 26  1  0
 22 21  1  0
 21 20  1  0
 20 19  1  0
 19 18  1  0
 18 16  1  0
 26 27  1  0
 27 33  1  0
 27 28  1  6
 33 34  2  0
 33 35  1  0
 28 29  1  0
 29 30  1  0
 30 31  1  0
 31 32  1  0
 35 36  1  0
 36 37  1  0
 37 38  2  0
 37 46  1  0
 38 39  1  0
 39 40  2  0
 40 41  1  0
 40 45  1  0
 41 42  1  0
 41 43  2  0
 45 46  2  0
 11 13  1  0
 11 12  2  0
 13 14  1  0
 14 15  1  0
 15 16  1  0
 16 17  2  0
  2  1  1  0
 57 58  1  0
 43 44  1  0
M  CHG  1  32   1
M  END
$$$$
