
     RDKit          3D

 61 62  0  0  0  0  0  0  0  0999 V2000
   49.8934  -31.8945    1.3090 H   0  0  0  0  0  0  0  0  0  0  0  0
   50.8484  -31.9088    2.0711 N   0  0  0  0  0  0  0  0  0  0  0  0
   51.9725  -31.9106    1.3121 C   0  0  0  0  0  0  0  0  0  0  0  0
   53.1639  -31.9544    1.9169 N   0  0  0  0  0  0  0  0  0  0  0  0
   51.8218  -31.9794   -0.0201 N   0  0  0  0  0  0  0  0  0  0  0  0
   52.8140  -31.5232   -0.9809 C   0  0  0  0  0  0  0  0  0  0  0  0
   52.2736  -31.6205   -2.4042 C   0  0  0  0  0  0  0  0  0  0  0  0
   53.3325  -30.9817   -3.3458 C   0  0  0  0  0  0  0  0  0  0  0  0
   53.6298  -31.8835   -4.5326 C   0  0  1  0  0  0  0  0  0  0  0  0
   54.1128  -33.2099   -4.0396 N   0  0  0  0  0  0  0  0  0  0  0  0
   53.2634  -33.9557   -3.2034 C   0  0  0  0  0  0  0  0  0  0  0  0
   52.0690  -33.6066   -3.1119 O   0  0  0  0  0  0  0  0  0  0  0  0
   53.6640  -35.2160   -2.7159 C   0  0  0  0  0  0  0  0  0  0  0  0
   53.5932  -35.3391   -1.1787 C   0  0  0  0  0  0  0  0  0  0  0  0
   52.2029  -35.0183   -0.5737 C   0  0  0  0  0  0  0  0  0  0  0  0
   51.2327  -35.9893   -0.9228 C   0  0  0  0  0  0  0  0  0  0  0  0
   51.0817  -37.0034   -0.2674 O   0  0  0  0  0  0  0  0  0  0  0  0
   50.6058  -35.9288   -2.1845 N   0  0  0  0  0  0  0  0  0  0  0  0
   49.5827  -36.9800   -2.4527 C   0  0  0  0  0  0  0  0  0  0  0  0
   49.3386  -37.1452   -3.9164 C   0  0  0  0  0  0  0  0  0  0  0  0
   48.5585  -35.9345   -4.4049 C   0  0  0  0  0  0  0  0  0  0  0  0
   47.9083  -36.3324   -5.6984 C   0  0  0  0  0  0  0  0  0  0  0  0
   48.8960  -36.3587   -6.8670 C   0  0  1  0  0  0  0  0  0  0  0  0
   48.1008  -36.8319   -7.9054 C   0  0  0  0  0  0  0  0  0  0  0  0
   47.6211  -37.9436   -7.8893 O   0  0  0  0  0  0  0  0  0  0  0  0
   47.6385  -35.8433   -8.7784 N   0  0  0  0  0  0  0  0  0  0  0  0
   46.1998  -35.6072   -9.0210 C   0  0  1  0  0  0  0  0  0  0  0  0
   45.9293  -35.0490  -10.4075 C   0  0  0  0  0  0  0  0  0  0  0  0
   46.8635  -35.5272  -11.4148 C   0  0  0  0  0  0  0  0  0  0  0  0
   47.0361  -34.5697  -12.5632 C   0  0  0  0  0  0  0  0  0  0  0  0
   46.2414  -35.1431  -13.7949 C   0  0  0  0  0  0  0  0  0  0  0  0
   46.8212  -34.8408  -15.0995 N   0  0  0  0  0  0  0  0  0  0  0  0
   45.4936  -36.9565   -8.8658 C   0  0  0  0  0  0  0  0  0  0  0  0
   46.2036  -37.9542   -8.8874 O   0  0  0  0  0  0  0  0  0  0  0  0
   44.1571  -37.0069   -8.9607 N   0  0  0  0  0  0  0  0  0  0  0  0
   43.4339  -38.2551   -8.7255 C   0  0  0  0  0  0  0  0  0  0  0  0
   43.4322  -38.5347   -7.3538 C   0  0  0  0  0  0  0  0  0  0  0  0
   44.0674  -39.6573   -6.8108 C   0  0  0  0  0  0  0  0  0  0  0  0
   44.1817  -39.8048   -5.4122 C   0  0  0  0  0  0  0  0  0  0  0  0
   43.6985  -38.8158   -4.5197 C   0  0  0  0  0  0  0  0  0  0  0  0
   43.9092  -38.9525   -3.1129 C   0  0  0  0  0  0  0  0  0  0  0  0
   44.5221  -40.0227   -2.6039 N   0  0  0  0  0  0  0  0  0  0  0  0
   43.2746  -38.1088   -2.2802 N   0  0  0  0  0  0  0  0  0  0  0  0
   44.1589  -37.5080   -1.6508 H   0  0  0  0  0  0  0  0  0  0  0  0
   43.0154  -37.7908   -5.0748 C   0  0  0  0  0  0  0  0  0  0  0  0
   42.8915  -37.6276   -6.4065 C   0  0  0  0  0  0  0  0  0  0  0  0
   49.4180  -34.9936   -7.0497 N   0  0  0  0  0  0  0  0  0  0  0  0
   50.8014  -34.6854   -6.9639 C   0  0  0  0  0  0  0  0  0  0  0  0
   51.5734  -35.5805   -7.3355 O   0  0  0  0  0  0  0  0  0  0  0  0
   51.2073  -33.3509   -7.1115 C   0  0  2  0  0  0  0  0  0  0  0  0
   51.9446  -33.4944   -8.6618 C   0  0  0  0  0  0  0  0  0  0  0  0
   53.0536  -34.5180   -8.3493 C   0  0  0  0  0  0  0  0  0  0  0  0
   52.7233  -35.2333   -6.9770 C   0  0  0  0  0  0  0  0  0  0  0  0
   51.9655  -34.3374   -6.0915 N   0  0  0  0  0  0  0  0  0  0  0  0
   50.6572  -34.3417   -5.7796 C   0  0  0  0  0  0  0  0  0  0  0  0
   50.0831  -35.3340   -5.0814 N   0  0  0  0  0  0  0  0  0  0  0  0
   49.8704  -33.4525   -6.2985 N   0  0  0  0  0  0  0  0  0  0  0  0
   48.7768  -34.0067   -6.4944 H   0  0  0  0  0  0  0  0  0  0  0  0
   52.3888  -33.1377   -6.2080 N   0  0  0  0  0  0  0  0  0  0  0  0
   52.5098  -32.0434   -5.3532 C   0  0  0  0  0  0  0  0  0  0  0  0
   51.6514  -31.1212   -5.4310 O   0  0  0  0  0  0  0  0  0  0  0  0
 10  9  1  0
 10 11  1  0
  9 60  1  0
  9  8  1  6
 60 61  2  0
 60 59  1  0
  8  7  1  0
  7  6  1  0
  6  5  1  0
  5  3  1  0
  3  4  1  0
  3  2  2  0
 59 50  1  0
 50 48  1  0
 50 51  1  6
 48 49  2  0
 48 47  1  0
 51 52  1  0
 52 53  1  0
 53 54  1  0
 54 55  1  0
 55 57  2  0
 55 56  1  0
 47 23  1  0
 23 24  1  6
 23 22  1  0
 24 25  2  0
 24 26  1  0
 22 21  1  0
 21 20  1  0
 20 19  1  0
 19 18  1  0
 18 16  1  0
 26 27  1  0
 27 33  1  0
 27 28  1  6
 33 34  2  0
 33 35  1  0
 28 29  1  0
 29 30  1  0
 30 31  1  0
 31 32  1  0
 35 36  1  0
 36 37  1  0
 37 38  4  0
 37 46  4  0
 38 39  4  0
 39 40  4  0
 40 41  1  0
 40 45  4  0
 41 42  1  0
 41 43  2  0
 45 46  4  0
 11 13  1  0
 11 12  2  0
 13 14  1  0
 14 15  1  0
 15 16  1  0
 16 17  2  0
  2  1  1  0
 57 58  1  0
 43 44  1  0
M  CHG  1  32   1
M  END
$$$$
