
     RDKit          3D

 80 82  0  0  0  0  0  0  0  0999 V2000
   51.9368  -30.3669   -1.6800 H   0  0  0  0  0  0  0  0  0  0  0  0
   51.5900  -30.1710   -0.7410 N   0  0  0  0  0  0  0  0  0  0  0  0
   52.3250  -30.5190    0.3360 C   0  0  0  0  0  0  0  0  0  0  0  0
   51.8770  -30.2590    1.5890 N   0  0  0  0  0  0  0  0  0  0  0  0
   53.5140  -31.1240    0.1560 N   0  0  0  0  0  0  0  0  0  0  0  0
   54.0930  -31.4190   -1.1710 C   0  0  0  0  0  0  0  0  0  0  0  0
   53.7160  -32.8230   -1.6600 C   0  0  0  0  0  0  0  0  0  0  0  0
   54.2630  -32.9830   -3.1010 C   0  0  0  0  0  0  0  0  0  0  0  0
   53.9860  -34.3710   -3.6850 C   0  0  2  0  0  0  0  0  0  0  0  0
   54.5500  -34.4330   -5.0460 N   0  0  0  0  0  0  0  0  0  0  0  0
   54.8170  -35.6750   -5.6200 C   0  0  0  0  0  0  0  0  0  0  0  0
   54.5530  -36.6960   -4.9870 O   0  0  0  0  0  0  0  0  0  0  0  0
   55.3020  -35.7300   -6.9260 C   0  0  1  0  0  0  0  0  0  0  0  0
   56.0590  -36.9760   -7.1240 N   0  0  0  0  0  0  0  0  0  0  0  0
   54.0800  -35.6630   -7.8270 C   0  0  0  0  0  0  0  0  0  0  0  0
   54.4360  -35.6280   -9.2820 C   0  0  0  0  0  0  0  0  0  0  0  0
   53.1340  -35.5280  -10.0650 C   0  0  0  0  0  0  0  0  0  0  0  0
   53.2840  -34.3750  -10.9940 C   0  0  0  0  0  0  0  0  0  0  0  0
   54.4840  -34.6390  -11.7930 N   0  0  0  0  0  0  0  0  0  0  0  0
   55.3850  -33.6450  -12.1720 C   0  0  0  0  0  0  0  0  0  0  0  0
   55.1780  -32.4710  -11.8670 O   0  0  0  0  0  0  0  0  0  0  0  0
   56.4610  -34.0190  -12.9720 C   0  0  0  0  0  0  0  0  0  0  0  0
   55.8900  -34.1540  -14.2220 C   0  0  0  0  0  0  0  0  0  0  0  0
   55.2570  -35.3470  -14.5520 C   0  0  0  0  0  0  0  0  0  0  0  0
   54.6480  -35.4940  -15.7840 C   0  0  0  0  0  0  0  0  0  0  0  0
   54.6890  -34.4430  -16.6880 C   0  0  0  0  0  0  0  0  0  0  0  0
   55.3020  -33.2400  -16.3550 C   0  0  0  0  0  0  0  0  0  0  0  0
   55.9060  -33.0910  -15.1140 C   0  0  0  0  0  0  0  0  0  0  0  0
   54.0480  -34.5980  -17.9000 C   0  0  0  0  0  0  0  0  0  0  0  0
   52.6360  -34.7230  -17.4510 N   0  0  0  0  0  0  0  0  0  0  0  0
   51.9420  -33.6310  -16.8890 C   0  0  0  0  0  0  0  0  0  0  0  0
   52.4810  -32.5270  -16.8090 O   0  0  0  0  0  0  0  0  0  0  0  0
   50.6360  -33.8060  -16.4390 C   0  0  0  0  0  0  0  0  0  0  0  0
   49.8770  -32.4930  -16.5670 C   0  0  0  0  0  0  0  0  0  0  0  0
   49.8890  -31.7380  -15.2830 C   0  0  0  0  0  0  0  0  0  0  0  0
   48.9220  -32.2630  -14.4270 C   0  0  0  0  0  0  0  0  0  0  0  0
   49.1260  -32.2620  -13.2130 O   0  0  0  0  0  0  0  0  0  0  0  0
   47.7020  -32.7960  -14.9210 N   0  0  0  0  0  0  0  0  0  0  0  0
   46.7090  -33.3020  -13.9320 C   0  0  0  0  0  0  0  0  0  0  0  0
   46.7590  -34.7940  -13.5960 C   0  0  0  0  0  0  0  0  0  0  0  0
   46.3520  -34.8950  -12.1090 C   0  0  0  0  0  0  0  0  0  0  0  0
   45.8320  -36.2590  -11.7410 C   0  0  0  0  0  0  0  0  0  0  0  0
   45.8620  -36.4270  -10.2140 C   0  0  1  0  0  0  0  0  0  0  0  0
   45.3330  -37.6760   -9.8580 C   0  0  0  0  0  0  0  0  0  0  0  0
   46.0330  -38.6730  -10.0020 O   0  0  0  0  0  0  0  0  0  0  0  0
   44.0770  -37.7160   -9.3610 N   0  0  0  0  0  0  0  0  0  0  0  0
   43.4580  -38.9810   -8.8940 C   0  0  0  0  0  0  0  0  0  0  0  0
   43.5790  -39.0360   -7.4740 C   0  0  0  0  0  0  0  0  0  0  0  0
   44.7220  -39.5480   -6.8700 C   0  0  0  0  0  0  0  0  0  0  0  0
   44.8500  -39.5870   -5.4780 C   0  0  0  0  0  0  0  0  0  0  0  0
   43.8340  -39.1160   -4.6400 C   0  0  0  0  0  0  0  0  0  0  0  0
   43.9580  -39.1510   -3.2320 C   0  0  0  0  0  0  0  0  0  0  0  0
   45.1580  -39.3700   -2.6780 N   0  0  0  0  0  0  0  0  0  0  0  0
   42.8920  -38.8820   -2.4770 N   0  0  0  0  0  0  0  0  0  0  0  0
   42.0001  -38.6543   -2.9165 H   0  0  0  0  0  0  0  0  0  0  0  0
   42.6850  -38.6020   -5.2510 C   0  0  0  0  0  0  0  0  0  0  0  0
   42.5630  -38.5670   -6.6440 C   0  0  0  0  0  0  0  0  0  0  0  0
   47.2470  -36.3850   -9.6860 N   0  0  0  0  0  0  0  0  0  0  0  0
   47.5950  -36.4670   -8.3210 C   0  0  0  0  0  0  0  0  0  0  0  0
   46.7010  -36.4690   -7.4760 O   0  0  0  0  0  0  0  0  0  0  0  0
   48.9590  -36.5280   -7.9380 C   0  0  2  0  0  0  0  0  0  0  0  0
   49.4520  -38.0050   -7.9020 C   0  0  1  0  0  0  0  0  0  0  0  0
   49.3500  -38.6470   -9.3000 C   0  0  0  0  0  0  0  0  0  0  0  0
   50.9170  -38.0650   -7.4650 C   0  0  0  0  0  0  0  0  0  0  0  0
   48.6180  -38.8410   -6.9170 C   0  0  0  0  0  0  0  0  0  0  0  0
   49.2000  -35.9270   -6.5990 N   0  0  0  0  0  0  0  0  0  0  0  0
   50.1980  -34.9640   -6.3600 C   0  0  0  0  0  0  0  0  0  0  0  0
   50.8890  -34.5750   -7.3020 O   0  0  0  0  0  0  0  0  0  0  0  0
   50.4270  -34.4790   -5.0610 C   0  0  2  0  0  0  0  0  0  0  0  0
   49.5860  -33.2260   -4.7670 C   0  0  0  0  0  0  0  0  0  0  0  0
   49.8580  -32.7050   -3.3400 C   0  0  0  0  0  0  0  0  0  0  0  0
   49.2140  -33.6410   -2.3090 C   0  0  0  0  0  0  0  0  0  0  0  0
   49.4390  -33.1560   -0.9300 N   0  0  0  0  0  0  0  0  0  0  0  0
   50.2320  -33.7550   -0.0170 C   0  0  0  0  0  0  0  0  0  0  0  0
   50.3330  -33.2480    1.2260 N   0  0  0  0  0  0  0  0  0  0  0  0
   50.9040  -34.8740   -0.3220 N   0  0  0  0  0  0  0  0  0  0  0  0
   50.8191  -35.2822   -1.2529 H   0  0  0  0  0  0  0  0  0  0  0  0
   51.8850  -34.2010   -4.9190 N   0  0  0  0  0  0  0  0  0  0  0  0
   52.6030  -34.6340   -3.7910 C   0  0  0  0  0  0  0  0  0  0  0  0
   52.0100  -35.2800   -2.9250 O   0  0  0  0  0  0  0  0  0  0  0  0
 13 14  1  1
 11 13  1  0
 13 15  1  0
 11 12  2  0
 10 11  1  0
 15 16  1  0
 16 17  1  0
 17 18  1  0
 18 19  1  0
 19 20  1  0
  9 10  1  0
 79  9  1  0
  9  8  1  6
 79 80  2  0
 78 79  1  0
  8  7  1  0
  7  6  1  0
  6  5  1  0
  5  3  1  0
  3  4  1  0
  3  2  2  0
 69 78  1  0
 67 69  1  0
 69 70  1  6
 67 68  2  0
 66 67  1  0
 70 71  1  0
 71 72  1  0
 72 73  1  0
 73 74  1  0
 74 75  1  0
 74 76  2  0
 61 66  1  1
 61 62  1  0
 59 61  1  0
 62 63  1  6
 62 64  1  0
 62 65  1  0
 59 60  2  0
 58 59  1  0
 43 58  1  0
 43 44  1  6
 42 43  1  0
 44 45  2  0
 44 46  1  0
 41 42  1  0
 40 41  1  0
 39 40  1  0
 38 39  1  0
 36 38  1  0
 46 47  1  0
 47 48  1  0
 48 49  2  0
 48 57  1  0
 49 50  1  0
 50 51  2  0
 51 52  1  0
 56 51  1  0
 52 53  1  0
 52 54  2  0
 57 56  2  0
 35 36  1  0
 36 37  2  0
 34 35  1  0
 33 34  1  0
 31 33  1  0
 31 32  2  0
 30 31  1  0
 29 30  1  0
 25 24  2  0
 24 23  1  0
 26 25  1  0
 26 27  2  0
 26 29  1  0
 27 28  1  0
 28 23  2  0
 20 22  1  0
 22 23  1  0
 20 21  2  0
  2  1  1  0
 76 77  1  0
 54 55  1  0
M  CHG  1  14   1
M  END
$$$$
