
     RDKit          3D

 47 47  0  0  0  0  0  0  0  0999 V2000
  -19.3256   10.4169    1.8559 C   0  0  0  0  0  0  0  0  0  0  0  0
  -20.2977   10.1425    3.0269 C   0  0  1  0  0  0  0  0  0  0  0  0
  -20.2858   11.2247    3.9588 N   0  0  0  0  0  0  0  0  0  0  0  0
  -21.7038    9.9215    2.5467 C   0  0  0  0  0  0  0  0  0  0  0  0
  -22.3546   10.8706    2.0881 O   0  0  0  0  0  0  0  0  0  0  0  0
  -22.3047    8.7869    2.8580 N   0  0  0  0  0  0  0  0  0  0  0  0
  -21.6575    7.4946    2.6319 C   0  0  1  0  0  0  0  0  0  0  0  0
  -20.6879    7.1705    3.8077 C   0  0  0  0  0  0  0  0  0  0  0  0
  -22.6951    6.3965    2.4472 C   0  0  0  0  0  0  0  0  0  0  0  0
  -23.8188    6.6579    2.0212 O   0  0  0  0  0  0  0  0  0  0  0  0
  -22.2380    5.1414    2.6112 N   0  0  0  0  0  0  0  0  0  0  0  0
  -21.8980    4.2975    1.5175 C   0  0  2  0  0  0  0  0  0  0  0  0
  -22.6694    4.7151    0.2123 C   0  0  0  0  0  0  0  0  0  0  0  0
  -24.1181    4.7447    0.4056 C   0  0  0  0  0  0  0  0  0  0  0  0
  -24.7807    3.8786   -0.1545 O   0  0  0  0  0  0  0  0  0  0  0  0
  -24.5824    5.5374    1.2477 O   0  0  0  0  0  0  0  0  0  0  0  0
  -22.2989    2.8433    1.8415 C   0  0  0  0  0  0  0  0  0  0  0  0
  -21.5598    1.8827    1.4850 O   0  0  0  0  0  0  0  0  0  0  0  0
  -23.4546    2.6488    2.4395 N   0  0  0  0  0  0  0  0  0  0  0  0
  -24.4643    1.6975    2.0048 C   0  0  2  0  0  0  0  0  0  0  0  0
  -23.7916    0.5920    1.2626 C   0  0  0  0  0  0  0  0  0  0  0  0
  -23.7188    0.5431    0.0064 O   0  0  0  0  0  0  0  0  0  0  0  0
  -23.3380   -0.4285    2.0040 N   0  0  0  0  0  0  0  0  0  0  0  0
  -24.1448   -1.5522    2.3700 C   0  0  2  0  0  0  0  0  0  0  0  0
  -23.4419   -2.8854    2.3866 C   0  0  0  0  0  0  0  0  0  0  0  0
  -22.7850   -3.1894    1.4024 O   0  0  0  0  0  0  0  0  0  0  0  0
  -23.7174   -3.7386    3.3936 N   0  0  0  0  0  0  0  0  0  0  0  0
  -24.5010   -4.9082    3.2169 C   0  0  2  0  0  0  0  0  0  0  0  0
  -25.4713   -5.1280    4.4085 C   0  0  0  0  0  0  0  0  0  0  0  0
  -26.6919   -4.9797    4.2588 O   0  0  0  0  0  0  0  0  0  0  0  0
  -24.9585   -5.5859    5.5609 N   0  0  0  0  0  0  0  0  0  0  0  0
  -24.4830   -4.8167    6.7016 C   0  0  0  0  0  0  0  0  0  0  0  0
  -24.3737   -5.8121    7.8137 C   0  0  0  0  0  0  0  0  0  0  0  0
  -24.1291   -7.1029    7.1480 C   0  0  0  0  0  0  0  0  0  0  0  0
  -24.8860   -7.0488    5.8320 C   0  0  1  0  0  0  0  0  0  0  0  0
  -26.2437   -7.6896    5.9396 C   0  0  0  0  0  0  0  0  0  0  0  0
  -26.5432   -8.1948    7.0436 O   0  0  0  0  0  0  0  0  0  0  0  0
  -26.8570   -8.0212    4.9277 O   0  0  0  0  0  0  0  0  0  0  0  0
  -23.6325   -6.1647    3.0261 C   0  0  2  0  0  0  0  0  0  0  0  0
  -22.9115   -6.5014    4.3431 C   0  0  0  0  0  0  0  0  0  0  0  0
  -22.6295   -5.9198    2.0364 O   0  0  0  0  0  0  0  0  0  0  0  0
  -25.3464   -1.6578    1.4731 C   0  0  1  0  0  0  0  0  0  0  0  0
  -26.0739   -2.9442    1.6600 C   0  0  0  0  0  0  0  0  0  0  0  0
  -26.2934   -0.5323    1.7622 O   0  0  0  0  0  0  0  0  0  0  0  0
  -25.5361    2.3355    1.1170 C   0  0  2  0  0  0  0  0  0  0  0  0
  -26.3015    3.4301    1.8891 C   0  0  0  0  0  0  0  0  0  0  0  0
  -26.4583    1.3499    0.6658 O   0  0  0  0  0  0  0  0  0  0  0  0
  3  2  1  0
  2  4  1  0
  2  1  1  1
  4  5  2  0
  4  6  1  0
  6  7  1  0
  7  9  1  0
  7  8  1  1
  9 10  2  0
  9 11  1  0
 11 12  1  0
 12 17  1  0
 12 13  1  1
 17 18  2  0
 17 19  1  0
 13 14  1  0
 14 16  1  0
 14 15  2  0
 20 19  1  6
 20 21  1  0
 20 45  1  0
 21 22  2  0
 21 23  1  0
 45 47  1  0
 45 46  1  6
 24 23  1  6
 24 25  1  0
 24 42  1  0
 25 26  2  0
 25 27  1  0
 42 44  1  0
 42 43  1  1
 28 27  1  1
 28 29  1  0
 28 39  1  0
 29 30  2  0
 29 31  1  0
 39 41  1  0
 39 40  1  6
 31 35  1  0
 31 32  1  0
 35 36  1  1
 35 34  1  0
 36 37  2  0
 36 38  1  0
 34 33  1  0
 33 32  1  0
M  CHG  1   3   1
M  END
$$$$
