
     RDKit          3D

 18 19  0  0  0  0  0  0  0  0999 V2000
  -18.7884   -1.7965  -27.1760 C   0  0  0  0  0  0  0  0  0  0  0  0
  -17.3270   -1.2894  -27.2236 C   0  0  0  0  0  0  0  0  0  0  0  0
  -16.2477   -2.1388  -26.8873 C   0  0  1  0  0  0  0  0  0  0  0  0
  -15.5288   -1.8534  -25.5894 C   0  0  0  0  0  0  0  0  0  0  0  0
  -16.3010   -3.6065  -27.0491 C   0  0  0  0  0  0  0  0  0  0  0  0
  -17.5369   -4.3100  -27.0156 C   0  0  0  0  0  0  0  0  0  0  0  0
  -18.0346   -5.0391  -28.0645 C   0  0  0  0  0  0  0  0  0  0  0  0
  -17.1663   -5.3332  -29.1515 C   0  0  0  0  0  0  0  0  0  0  0  0
  -17.4700   -6.3675  -29.9866 O   0  0  0  0  0  0  0  0  0  0  0  0
  -15.9499   -4.6575  -29.2301 C   0  0  0  0  0  0  0  0  0  0  0  0
  -15.4148   -4.0763  -28.1056 C   0  0  0  0  0  0  0  0  0  0  0  0
  -15.3000   -2.2143  -27.9342 C   0  0  0  0  0  0  0  0  0  0  0  0
  -16.0383   -3.2873  -29.0567 C   0  0  0  0  0  0  0  0  0  0  0  0
  -16.6031   -4.2613  -28.1945 C   0  0  0  0  0  0  0  0  0  0  0  0
  -15.8056   -4.8970  -27.2686 C   0  0  0  0  0  0  0  0  0  0  0  0
  -16.0006   -6.2234  -26.9649 O   0  0  0  0  0  0  0  0  0  0  0  0
  -14.5447   -4.3257  -26.9540 C   0  0  0  0  0  0  0  0  0  0  0  0
  -14.1540   -3.1550  -27.5872 C   0  0  0  0  0  0  0  0  0  0  0  0
  2  1  1  0
  3  4  1  1
  6  7  4  0
  7  8  4  0
 11 10  4  0
 10  8  4  0
 13 14  4  0
 14 15  4  0
 18 17  4  0
 17 15  4  0
  5  6  4  0
  5 11  4  0
 12 13  4  0
 12 18  4  0
  3  2  1  0
  8  9  1  0
 15 16  1  0
  3  5  1  0
 12  3  1  0
M  END
$$$$
