
     RDKit          3D

 19 20  0  0  0  0  0  0  0  0999 V2000
    2.7790  -17.8140    1.2760 O   0  0  0  0  0  0  0  0  0  0  0  0
    2.8680  -17.3340    2.5480 C   0  0  0  0  0  0  0  0  0  0  0  0
    3.0980  -18.2200    3.5940 C   0  0  0  0  0  0  0  0  0  0  0  0
    3.1950  -17.7720    4.9050 C   0  0  0  0  0  0  0  0  0  0  0  0
    3.0550  -16.4190    5.1520 C   0  0  0  0  0  0  0  0  0  0  0  0
    3.1350  -15.8490    6.4210 C   0  0  2  0  0  0  0  0  0  0  0  0
    4.4300  -15.9020    6.9750 C   0  0  0  0  0  0  0  0  0  0  0  0
    4.9480  -16.9140    7.7920 C   0  0  0  0  0  0  0  0  0  0  0  0
    6.2560  -16.8110    8.2910 C   0  0  0  0  0  0  0  0  0  0  0  0
    7.0140  -15.6810    7.9640 C   0  0  0  0  0  0  0  0  0  0  0  0
    8.2970  -15.4910    8.3880 O   0  0  0  0  0  0  0  0  0  0  0  0
    6.4780  -14.7000    7.1590 C   0  0  0  0  0  0  0  0  0  0  0  0
    5.2010  -14.8020    6.6750 C   0  0  0  0  0  0  0  0  0  0  0  0
    2.0520  -16.2480    7.4290 C   0  0  1  0  0  0  0  0  0  0  0  0
    1.9950  -17.9620    7.9770 Cl  0  0  0  0  0  0  0  0  0  0  0  0
    2.1700  -15.1750    8.7420 Cl  0  0  0  0  0  0  0  0  0  0  0  0
    0.5470  -15.9510    6.6210 Cl  0  0  0  0  0  0  0  0  0  0  0  0
    2.8220  -15.5290    4.1070 C   0  0  0  0  0  0  0  0  0  0  0  0
    2.7270  -15.9770    2.7950 C   0  0  0  0  0  0  0  0  0  0  0  0
  4  3  2  0
  4  5  1  0
  3  2  1  0
  2  1  1  0
  2 19  2  0
 19 18  1  0
 18  5  2  0
  6  5  1  6
  6 14  1  0
  6  7  1  0
 14 15  1  1
 14 16  1  0
 14 17  1  0
  7  8  2  0
  7 13  1  0
  8  9  1  0
  9 10  2  0
 10 11  1  0
 10 12  1  0
 12 13  2  0
M  END
$$$$
