
     RDKit          3D

 19 20  0  0  0  0  0  0  0  0999 V2000
    7.2597  -16.4588    8.0377 O   0  0  0  0  0  0  0  0  0  0  0  0
    6.0058  -16.3462    7.5421 C   0  0  0  0  0  0  0  0  0  0  0  0
    5.6567  -16.9875    6.3657 C   0  0  0  0  0  0  0  0  0  0  0  0
    4.4025  -16.8038    5.7844 C   0  0  0  0  0  0  0  0  0  0  0  0
    3.7862  -15.5747    6.0978 C   0  0  0  0  0  0  0  0  0  0  0  0
    2.4366  -15.4678    5.6266 C   0  0  1  0  0  0  0  0  0  0  0  0
    2.8894  -17.1536    5.0327 C   0  0  0  0  0  0  0  0  0  0  0  0
    4.0065  -16.7407    4.2132 C   0  0  0  0  0  0  0  0  0  0  0  0
    4.9432  -15.9218    4.7739 C   0  0  0  0  0  0  0  0  0  0  0  0
    4.9982  -15.7699    6.1954 C   0  0  0  0  0  0  0  0  0  0  0  0
    6.0518  -15.2042    6.8400 O   0  0  0  0  0  0  0  0  0  0  0  0
    4.1621  -16.5671    6.9597 C   0  0  0  0  0  0  0  0  0  0  0  0
    3.2964  -17.4631    6.3735 C   0  0  0  0  0  0  0  0  0  0  0  0
    1.3696  -16.0226    6.5927 C   0  0  1  0  0  0  0  0  0  0  0  0
   -0.3048  -15.3981    6.4240 Cl  0  0  0  0  0  0  0  0  0  0  0  0
    1.4190  -17.7034    6.4413 Cl  0  0  0  0  0  0  0  0  0  0  0  0
    1.8925  -15.6022    8.1744 Cl  0  0  0  0  0  0  0  0  0  0  0  0
    4.0002  -15.0643    7.3683 C   0  0  0  0  0  0  0  0  0  0  0  0
    5.1243  -15.3958    8.1056 C   0  0  0  0  0  0  0  0  0  0  0  0
  4  3  4  0
  4  5  4  0
  3  2  4  0
  2  1  1  0
  2 19  4  0
 19 18  4  0
 18  5  4  0
  6  5  1  6
  6 14  1  0
  6  7  1  0
 14 15  1  6
 14 16  1  0
 14 17  1  0
  7  8  4  0
  7 13  4  0
  8  9  4  0
  9 10  4  0
 10 11  1  0
 10 12  4  0
 12 13  4  0
M  END
$$$$
