
     RDKit          3D

 17 18  0  0  0  0  0  0  0  0999 V2000
   17.3420    2.8710  -27.5600 C   0  0  0  0  0  0  0  0  0  0  0  0
   16.0000    3.3880  -28.0950 C   0  0  2  0  0  0  0  0  0  0  0  0
   14.8460    2.5790  -27.4890 C   0  0  0  0  0  0  0  0  0  0  0  0
   15.9790    3.2790  -29.6120 C   0  0  0  0  0  0  0  0  0  0  0  0
   14.9050    2.6840  -30.2600 C   0  0  0  0  0  0  0  0  0  0  0  0
   14.9150    2.5970  -31.6520 C   0  0  0  0  0  0  0  0  0  0  0  0
   15.9860    3.0980  -32.3900 C   0  0  0  0  0  0  0  0  0  0  0  0
   15.9850    3.0040  -33.7550 O   0  0  0  0  0  0  0  0  0  0  0  0
   17.0570    3.6920  -31.7290 C   0  0  0  0  0  0  0  0  0  0  0  0
   17.0530    3.7800  -30.3400 C   0  0  0  0  0  0  0  0  0  0  0  0
   15.7610    4.8500  -27.7180 C   0  0  0  0  0  0  0  0  0  0  0  0
   16.6200    5.5200  -26.8430 C   0  0  0  0  0  0  0  0  0  0  0  0
   16.3590    6.8410  -26.4960 C   0  0  0  0  0  0  0  0  0  0  0  0
   15.2390    7.4770  -27.0330 C   0  0  0  0  0  0  0  0  0  0  0  0
   14.9790    8.7720  -26.7020 O   0  0  0  0  0  0  0  0  0  0  0  0
   14.3850    6.8050  -27.9090 C   0  0  0  0  0  0  0  0  0  0  0  0
   14.6450    5.4930  -28.2520 C   0  0  0  0  0  0  0  0  0  0  0  0
  8  7  1  0
  7  6  2  0
  7  9  1  0
  6  5  1  0
  5  4  2  0
  9 10  2  0
 10  4  1  0
  4  2  1  0
  2  1  1  1
  2  3  1  0
  2 11  1  0
 11 12  2  0
 11 17  1  0
 12 13  1  0
 13 14  2  0
 17 16  2  0
 16 14  1  0
 14 15  1  0
M  END
$$$$
