
     RDKit          3D

 16 17  0  0  0  0  0  0  0  0999 V2000
   48.4476  -30.0165  -96.4832 C   0  0  0  0  0  0  0  0  0  0  0  0
   47.6991  -28.6950  -96.4625 C   0  0  1  0  0  0  0  0  0  0  0  0
   48.5817  -27.5979  -96.1961 C   0  0  0  0  0  0  0  0  0  0  0  0
   49.9580  -27.7790  -96.3102 C   0  0  0  0  0  0  0  0  0  0  0  0
   50.7312  -26.7550  -96.9920 C   0  0  0  0  0  0  0  0  0  0  0  0
   50.1417  -25.5240  -97.2228 C   0  0  0  0  0  0  0  0  0  0  0  0
   50.9729  -24.4398  -97.6123 O   0  0  0  0  0  0  0  0  0  0  0  0
   48.8020  -25.2969  -96.9436 C   0  0  0  0  0  0  0  0  0  0  0  0
   48.0810  -26.2959  -96.3064 C   0  0  0  0  0  0  0  0  0  0  0  0
   47.0171  -28.4623  -97.6535 C   0  0  0  0  0  0  0  0  0  0  0  0
   46.0354  -27.5066  -97.6701 C   0  0  0  0  0  0  0  0  0  0  0  0
   46.1459  -26.4629  -98.5713 C   0  0  0  0  0  0  0  0  0  0  0  0
   47.0915  -26.5028  -99.6285 C   0  0  0  0  0  0  0  0  0  0  0  0
   47.5297  -25.3790 -100.1464 O   0  0  0  0  0  0  0  0  0  0  0  0
   47.8156  -27.6974  -99.8031 C   0  0  0  0  0  0  0  0  0  0  0  0
   47.6628  -28.7238  -98.8891 C   0  0  0  0  0  0  0  0  0  0  0  0
  2  1  1  1
  4  5  4  0
  5  6  4  0
  9  8  4  0
  8  6  4  0
 11 12  4  0
 12 13  4  0
 16 15  4  0
 15 13  4  0
  3  4  4  0
  3  9  4  0
 10 11  4  0
 10 16  4  0
  6  7  1  0
 13 14  1  0
  2  3  1  0
 10  2  1  0
M  END
$$$$
