
     RDKit          3D

 16 17  0  0  0  0  0  0  0  0999 V2000
   48.0670  -29.8210  -96.2220 C   0  0  0  0  0  0  0  0  0  0  0  0
   48.8360  -28.7760  -97.0030 C   0  0  2  0  0  0  0  0  0  0  0  0
   48.4380  -27.4720  -96.6340 C   0  0  0  0  0  0  0  0  0  0  0  0
   47.3520  -26.8260  -97.2330 C   0  0  0  0  0  0  0  0  0  0  0  0
   47.0000  -25.5230  -96.8390 C   0  0  0  0  0  0  0  0  0  0  0  0
   47.7350  -24.8640  -95.8420 C   0  0  0  0  0  0  0  0  0  0  0  0
   47.4010  -23.5900  -95.4450 O   0  0  0  0  0  0  0  0  0  0  0  0
   48.8170  -25.5190  -95.2410 C   0  0  0  0  0  0  0  0  0  0  0  0
   49.1620  -26.8150  -95.6410 C   0  0  0  0  0  0  0  0  0  0  0  0
   48.6890  -29.0050  -98.3750 C   0  0  0  0  0  0  0  0  0  0  0  0
   49.7310  -28.6450  -99.2150 C   0  0  0  0  0  0  0  0  0  0  0  0
   49.6260  -28.8580 -100.5790 C   0  0  0  0  0  0  0  0  0  0  0  0
   48.4870  -29.4410 -101.1100 C   0  0  0  0  0  0  0  0  0  0  0  0
   48.4190  -29.6300 -102.4390 O   0  0  0  0  0  0  0  0  0  0  0  0
   47.4320  -29.8160 -100.2850 C   0  0  0  0  0  0  0  0  0  0  0  0
   47.5440  -29.6030  -98.9120 C   0  0  0  0  0  0  0  0  0  0  0  0
  2  1  1  1
  4  5  2  0
  5  6  1  0
  9  8  1  0
  8  6  2  0
 11 12  2  0
 12 13  1  0
 16 15  1  0
 15 13  2  0
  3  4  1  0
  3  9  2  0
 10 11  1  0
 10 16  2  0
  6  7  1  0
 13 14  1  0
  2  3  1  0
 10  2  1  0
M  END
$$$$
