
     RDKit          3D

 10 10  0  0  0  0  0  0  0  0999 V2000
  -16.8220   -2.4730  -26.6090 C   0  0  0  0  0  0  0  0  0  0  0  0
  -16.5100   -3.4200  -27.7740 C   0  0  2  0  0  0  0  0  0  0  0  0
  -17.7000   -3.4840  -28.7350 C   0  0  0  0  0  0  0  0  0  0  0  0
  -16.2210   -4.7060  -27.3110 C   0  0  0  0  0  0  0  0  0  0  0  0
  -15.0690   -5.3400  -27.7580 C   0  0  0  0  0  0  0  0  0  0  0  0
  -14.7600   -6.6160  -27.3120 C   0  0  0  0  0  0  0  0  0  0  0  0
  -15.5960   -7.2760  -26.4220 C   0  0  0  0  0  0  0  0  0  0  0  0
  -15.2750   -8.5340  -26.0020 O   0  0  0  0  0  0  0  0  0  0  0  0
  -16.7530   -6.6450  -25.9730 C   0  0  0  0  0  0  0  0  0  0  0  0
  -17.0660   -5.3620  -26.4190 C   0  0  0  0  0  0  0  0  0  0  0  0
  2  1  1  1
  2  3  1  0
  5  6  2  0
  6  7  1  0
 10  9  1  0
  9  7  2  0
  4  5  1  0
  4 10  2  0
  7  8  1  0
  4  2  1  0
M  END
$$$$
