
     RDKit          3D

 11 11  0  0  0  0  0  0  0  0999 V2000
  -16.9820   -0.8310  -26.2630 C   0  0  0  0  0  0  0  0  0  0  0  0
  -16.5710   -2.2740  -26.0410 C   0  0  0  0  0  0  0  0  0  0  0  0
  -17.0940   -3.1690  -27.1690 C   0  0  1  0  0  0  0  0  0  0  0  0
  -16.4750   -2.7200  -28.4970 C   0  0  0  0  0  0  0  0  0  0  0  0
  -16.6660   -4.4470  -26.8470 C   0  0  0  0  0  0  0  0  0  0  0  0
  -15.4930   -4.9360  -27.4040 C   0  0  0  0  0  0  0  0  0  0  0  0
  -15.0420   -6.2000  -27.0690 C   0  0  0  0  0  0  0  0  0  0  0  0
  -15.7580   -6.9740  -26.1700 C   0  0  0  0  0  0  0  0  0  0  0  0
  -15.2990   -8.2130  -25.8510 O   0  0  0  0  0  0  0  0  0  0  0  0
  -16.9340   -6.4880  -25.6010 C   0  0  0  0  0  0  0  0  0  0  0  0
  -17.3890   -5.2190  -25.9380 C   0  0  0  0  0  0  0  0  0  0  0  0
  1  2  1  0
  2  3  1  0
  3  4  1  6
  3  5  1  0
  5  6  2  0
  5 11  1  0
  6  7  1  0
  7  8  2  0
  8  9  1  0
  8 10  1  0
 10 11  2  0
M  END
$$$$
