
     RDKit          3D

 11 11  0  0  0  0  0  0  0  0999 V2000
  -18.4167   -3.2944  -28.5432 C   0  0  0  0  0  0  0  0  0  0  0  0
  -17.5207   -3.4555  -27.3285 C   0  0  0  0  0  0  0  0  0  0  0  0
  -16.0897   -3.8172  -27.7732 C   0  0  1  0  0  0  0  0  0  0  0  0
  -15.1014   -2.8968  -27.1067 C   0  0  0  0  0  0  0  0  0  0  0  0
  -15.8975   -5.1041  -27.2853 C   0  0  0  0  0  0  0  0  0  0  0  0
  -14.8337   -5.8186  -27.7647 C   0  0  0  0  0  0  0  0  0  0  0  0
  -14.7400   -7.1863  -27.4707 C   0  0  0  0  0  0  0  0  0  0  0  0
  -15.7570   -7.8194  -26.7078 C   0  0  0  0  0  0  0  0  0  0  0  0
  -15.7414   -9.1579  -26.6046 O   0  0  0  0  0  0  0  0  0  0  0  0
  -16.7990   -7.0632  -26.2345 C   0  0  0  0  0  0  0  0  0  0  0  0
  -16.9261   -5.7240  -26.5413 C   0  0  0  0  0  0  0  0  0  0  0  0
  1  2  1  0
  2  3  1  0
  3  4  1  1
  3  5  1  0
  5  6  4  0
  5 11  4  0
  6  7  4  0
  7  8  4  0
  8  9  1  0
  8 10  4  0
 10 11  4  0
M  END
$$$$
