
     RDKit          3D

 50 50  0  0  0  0  0  0  0  0999 V2000
   11.9970   10.1860   22.6760 C   0  0  0  0  0  0  0  0  0  0  0  0
   13.1340   10.7360   23.5210 C   0  0  0  0  0  0  0  0  0  0  0  0
   14.0260    9.6100   24.0390 C   0  0  0  0  0  0  0  0  0  0  0  0
   15.2720   10.1400   24.7440 C   0  0  0  0  0  0  0  0  0  0  0  0
   16.3120    9.0530   25.0270 C   0  0  2  0  0  0  0  0  0  0  0  0
   16.9160    8.5770   23.7850 N   0  0  0  0  0  0  0  0  0  0  0  0
   15.6610    7.8930   25.7730 C   0  0  0  0  0  0  0  0  0  0  0  0
   15.5090    6.8000   25.2260 O   0  0  0  0  0  0  0  0  0  0  0  0
   15.2580    8.1440   27.0130 N   0  0  0  0  0  0  0  0  0  0  0  0
   14.6820    7.0920   27.8340 C   0  0  1  0  0  0  0  0  0  0  0  0
   14.6080    7.5350   29.2950 C   0  0  0  0  0  0  0  0  0  0  0  0
   13.2960    6.7180   27.3410 C   0  0  0  0  0  0  0  0  0  0  0  0
   12.5750    7.5340   26.7590 O   0  0  0  0  0  0  0  0  0  0  0  0
   12.9240    5.4640   27.5770 N   0  0  0  0  0  0  0  0  0  0  0  0
   11.5750    4.9910   27.3290 C   0  0  1  0  0  0  0  0  0  0  0  0
   11.5500    3.9040   26.2450 C   0  0  0  0  0  0  0  0  0  0  0  0
   12.3050    2.6510   26.6600 C   0  0  0  0  0  0  0  0  0  0  0  0
   13.5430    2.6430   26.5120 O   0  0  0  0  0  0  0  0  0  0  0  0
   11.6600    1.6830   27.1250 O   0  0  0  0  0  0  0  0  0  0  0  0
   10.9790    4.4500   28.6220 C   0  0  0  0  0  0  0  0  0  0  0  0
   11.6910    4.1760   29.5940 O   0  0  0  0  0  0  0  0  0  0  0  0
    9.6600    4.2960   28.6210 N   0  0  0  0  0  0  0  0  0  0  0  0
    8.9220    3.7260   29.7390 C   0  0  2  0  0  0  0  0  0  0  0  0
    8.0630    2.5730   29.2340 C   0  0  0  0  0  0  0  0  0  0  0  0
    7.6660    2.5410   28.0660 O   0  0  0  0  0  0  0  0  0  0  0  0
    7.7790    1.6190   30.1230 N   0  0  0  0  0  0  0  0  0  0  0  0
    6.9360    0.4780   29.7930 C   0  0  2  0  0  0  0  0  0  0  0  0
    5.5160    0.6170   30.3410 C   0  0  0  0  0  0  0  0  0  0  0  0
    4.7860   -0.3780   30.4150 O   0  0  0  0  0  0  0  0  0  0  0  0
    5.1100    1.8240   30.7270 N   0  0  0  0  0  0  0  0  0  0  0  0
    3.7910    2.1240   31.2510 C   0  0  2  0  0  0  0  0  0  0  0  0
    3.2850    3.4170   30.6280 C   0  0  0  0  0  0  0  0  0  0  0  0
    4.0510    4.1430   29.9850 O   0  0  0  0  0  0  0  0  0  0  0  0
    1.9810    3.7360   30.7750 N   0  0  0  0  0  0  0  0  0  0  0  0
    0.8870    3.0280   31.4670 C   0  0  0  0  0  0  0  0  0  0  0  0
   -0.2010    4.0590   31.5280 C   0  0  0  0  0  0  0  0  0  0  0  0
   -0.0230    4.8740   30.3010 C   0  0  0  0  0  0  0  0  0  0  0  0
    1.4960    4.9580   30.1180 C   0  0  1  0  0  0  0  0  0  0  0  0
    2.0350    6.2480   30.7360 C   0  0  0  0  0  0  0  0  0  0  0  0
    2.5020    7.1190   30.0050 O   0  0  0  0  0  0  0  0  0  0  0  0
    1.9940    6.3970   31.9560 O   0  0  0  0  0  0  0  0  0  0  0  0
    3.8290    2.2440   32.7860 C   0  0  1  0  0  0  0  0  0  0  0  0
    4.1690    0.9010   33.4270 C   0  0  0  0  0  0  0  0  0  0  0  0
    4.8020    3.2250   33.1660 O   0  0  0  0  0  0  0  0  0  0  0  0
    7.5720   -0.8200   30.3010 C   0  0  1  0  0  0  0  0  0  0  0  0
    9.0700   -0.8520   29.9800 C   0  0  0  0  0  0  0  0  0  0  0  0
    7.3850   -0.9330   31.7200 O   0  0  0  0  0  0  0  0  0  0  0  0
    8.0360    4.7900   30.4270 C   0  0  1  0  0  0  0  0  0  0  0  0
    7.0400    5.3950   29.4300 C   0  0  0  0  0  0  0  0  0  0  0  0
    7.3230    4.2110   31.5340 O   0  0  0  0  0  0  0  0  0  0  0  0
  5  6  1  6
  5  7  1  0
  5  4  1  0
  7  8  2  0
  7  9  1  0
  4  3  1  0
  3  2  1  0
  2  1  1  0
  9 10  1  0
 10 12  1  0
 10 11  1  1
 12 13  2  0
 12 14  1  0
 14 15  1  0
 15 20  1  0
 15 16  1  6
 20 21  2  0
 20 22  1  0
 16 17  1  0
 17 18  2  0
 17 19  1  0
 23 22  1  6
 23 24  1  0
 23 48  1  0
 24 25  2  0
 24 26  1  0
 48 50  1  0
 48 49  1  6
 27 26  1  1
 27 28  1  0
 27 45  1  0
 28 29  2  0
 28 30  1  0
 45 47  1  0
 45 46  1  1
 31 30  1  6
 31 32  1  0
 31 42  1  0
 32 33  2  0
 32 34  1  0
 42 44  1  0
 42 43  1  1
 34 38  1  0
 34 35  1  0
 38 39  1  1
 38 37  1  0
 39 41  1  0
 39 40  2  0
 37 36  1  0
 36 35  1  0
M  CHG  1   6   1
M  END
$$$$
