
     RDKit          3D

 50 50  0  0  0  0  0  0  0  0999 V2000
   19.5636    9.6310   25.8778 C   0  0  0  0  0  0  0  0  0  0  0  0
   19.8962   11.1168   25.8720 C   0  0  0  0  0  0  0  0  0  0  0  0
   18.6295   11.8989   25.8978 C   0  0  0  0  0  0  0  0  0  0  0  0
   17.3707   11.0303   26.0091 C   0  0  0  0  0  0  0  0  0  0  0  0
   17.6501    9.5732   25.5924 C   0  0  2  0  0  0  0  0  0  0  0  0
   17.5174    9.4063   24.1533 N   0  0  0  0  0  0  0  0  0  0  0  0
   16.6482    8.6807   26.3567 C   0  0  0  0  0  0  0  0  0  0  0  0
   16.8659    7.4449   26.4144 O   0  0  0  0  0  0  0  0  0  0  0  0
   15.5374    9.1766   26.6913 N   0  0  0  0  0  0  0  0  0  0  0  0
   14.2887    8.4025   26.7078 C   0  0  2  0  0  0  0  0  0  0  0  0
   13.4614    8.7336   27.8986 C   0  0  0  0  0  0  0  0  0  0  0  0
   14.6329    6.9028   26.7040 C   0  0  0  0  0  0  0  0  0  0  0  0
   15.7589    6.4617   26.4838 O   0  0  0  0  0  0  0  0  0  0  0  0
   13.5866    6.0877   26.6876 N   0  0  0  0  0  0  0  0  0  0  0  0
   13.7395    4.7051   26.6859 C   0  0  2  0  0  0  0  0  0  0  0  0
   14.1725    4.1335   25.3008 C   0  0  0  0  0  0  0  0  0  0  0  0
   13.0180    3.9410   24.3423 C   0  0  0  0  0  0  0  0  0  0  0  0
   11.8493    3.9720   24.8030 O   0  0  0  0  0  0  0  0  0  0  0  0
   13.2475    3.8479   23.1070 O   0  0  0  0  0  0  0  0  0  0  0  0
   12.3976    4.0147   27.0824 C   0  0  0  0  0  0  0  0  0  0  0  0
   12.2814    2.7546   26.9858 O   0  0  0  0  0  0  0  0  0  0  0  0
   11.4595    4.8180   27.5628 N   0  0  0  0  0  0  0  0  0  0  0  0
   10.0347    4.5859   27.4226 C   0  0  2  0  0  0  0  0  0  0  0  0
    9.3660    4.9824   28.7229 C   0  0  0  0  0  0  0  0  0  0  0  0
    9.0520    6.1285   28.9321 O   0  0  0  0  0  0  0  0  0  0  0  0
    8.9558    3.9549   29.4689 N   0  0  0  0  0  0  0  0  0  0  0  0
    7.5825    3.4834   29.5806 C   0  0  2  0  0  0  0  0  0  0  0  0
    7.2541    2.8363   30.9355 C   0  0  0  0  0  0  0  0  0  0  0  0
    7.2692    3.5971   31.9359 O   0  0  0  0  0  0  0  0  0  0  0  0
    6.9853    1.5595   30.9925 N   0  0  0  0  0  0  0  0  0  0  0  0
    5.7110    0.9784   31.3154 C   0  0  2  0  0  0  0  0  0  0  0  0
    4.6010    1.8722   30.7216 C   0  0  0  0  0  0  0  0  0  0  0  0
    4.7327    2.3536   29.6097 O   0  0  0  0  0  0  0  0  0  0  0  0
    3.3315    1.7011   31.2162 N   0  0  0  0  0  0  0  0  0  0  0  0
    2.4249    0.5697   30.9912 C   0  0  0  0  0  0  0  0  0  0  0  0
    1.3727    0.6835   32.0665 C   0  0  0  0  0  0  0  0  0  0  0  0
    2.0854    1.3851   33.1992 C   0  0  0  0  0  0  0  0  0  0  0  0
    2.9889    2.4019   32.4839 C   0  0  2  0  0  0  0  0  0  0  0  0
    2.2333    3.7385   32.2361 C   0  0  0  0  0  0  0  0  0  0  0  0
    2.8321    4.8084   32.4813 O   0  0  0  0  0  0  0  0  0  0  0  0
    1.0351    3.7084   32.2727 O   0  0  0  0  0  0  0  0  0  0  0  0
    5.5363    0.8933   32.8334 C   0  0  2  0  0  0  0  0  0  0  0  0
    4.3883    1.7515   33.3192 C   0  0  0  0  0  0  0  0  0  0  0  0
    6.7285    1.3631   33.5079 O   0  0  0  0  0  0  0  0  0  0  0  0
    7.3051    2.4735   28.4573 C   0  0  2  0  0  0  0  0  0  0  0  0
    6.0361    1.6999   28.7363 C   0  0  0  0  0  0  0  0  0  0  0  0
    8.3916    1.5780   28.3247 O   0  0  0  0  0  0  0  0  0  0  0  0
    9.7667    3.0940   26.9938 C   0  0  2  0  0  0  0  0  0  0  0  0
    8.3457    2.7228   27.4717 C   0  0  0  0  0  0  0  0  0  0  0  0
   10.6949    2.2324   27.6926 O   0  0  0  0  0  0  0  0  0  0  0  0
  5  6  1  6
  5  7  1  0
  5  4  1  0
  7  8  2  0
  7  9  1  0
  4  3  1  0
  3  2  1  0
  2  1  1  0
  9 10  1  0
 10 12  1  0
 10 11  1  6
 12 13  2  0
 12 14  1  0
 14 15  1  0
 15 20  1  0
 15 16  1  1
 20 21  2  0
 20 22  1  0
 16 17  1  0
 17 18  2  0
 17 19  1  0
 23 22  1  1
 23 24  1  0
 23 48  1  0
 24 25  2  0
 24 26  1  0
 48 50  1  0
 48 49  1  6
 27 26  1  1
 27 28  1  0
 27 45  1  0
 28 29  2  0
 28 30  1  0
 45 47  1  0
 45 46  1  6
 31 30  1  1
 31 32  1  0
 31 42  1  0
 32 33  2  0
 32 34  1  0
 42 44  1  0
 42 43  1  6
 34 38  1  0
 34 35  1  0
 38 39  1  1
 38 37  1  0
 39 41  1  0
 39 40  2  0
 37 36  1  0
 36 35  1  0
M  CHG  1   6   1
M  END
$$$$
