
     RDKit          3D

 34 37  0  0  0  0  0  0  0  0999 V2000
  -26.4345    8.5636   -3.6856 C   0  0  0  0  0  0  0  0  0  0  0  0
  -24.8866    8.6142   -3.4006 C   0  0  0  0  0  0  0  0  0  0  0  0
  -24.3507    8.5198   -2.0861 C   0  0  0  0  0  0  0  0  0  0  0  0
  -22.9642    8.6127   -1.8400 C   0  0  0  0  0  0  0  0  0  0  0  0
  -22.0561    8.7779   -2.8517 C   0  0  0  0  0  0  0  0  0  0  0  0
  -20.4974    9.6564   -2.5706 S   0  0  0  0  0  0  0  0  0  0  0  0
  -19.7836    8.8403   -1.1500 C   0  0  1  0  0  0  0  0  0  0  0  0
  -20.4559    7.7107   -0.8166 O   0  0  0  0  0  0  0  0  0  0  0  0
  -19.7992    6.8497    0.0653 C   0  0  1  0  0  0  0  0  0  0  0  0
  -20.7005    5.6095    0.3293 C   0  0  0  0  0  0  0  0  0  0  0  0
  -22.0359    5.9464    0.3482 O   0  0  0  0  0  0  0  0  0  0  0  0
  -18.4049    6.5084   -0.3702 C   0  0  2  0  0  0  0  0  0  0  0  0
  -17.5759    6.2869    0.7006 O   0  0  0  0  0  0  0  0  0  0  0  0
  -17.7971    7.5273   -1.3356 C   0  0  2  0  0  0  0  0  0  0  0  0
  -16.3386    7.4819   -1.3032 N   0  0  0  0  0  0  0  0  0  0  0  0
  -15.5150    7.6261   -0.2295 C   0  0  0  0  0  0  0  0  0  0  0  0
  -14.2684    7.9228   -0.7434 C   0  0  0  0  0  0  0  0  0  0  0  0
  -13.0220    8.3332   -0.0846 C   0  0  0  0  0  0  0  0  0  0  0  0
  -12.7160    9.6822    0.1882 C   0  0  0  0  0  0  0  0  0  0  0  0
  -13.6244   10.5897    0.1207 F   0  0  0  0  0  0  0  0  0  0  0  0
  -11.5164   10.0469    0.7694 C   0  0  0  0  0  0  0  0  0  0  0  0
  -11.0178   11.2548    0.5055 F   0  0  0  0  0  0  0  0  0  0  0  0
  -10.7312    9.0646    1.3807 C   0  0  0  0  0  0  0  0  0  0  0  0
  -10.0666    9.3983    2.4005 F   0  0  0  0  0  0  0  0  0  0  0  0
  -10.9613    7.7742    1.1099 C   0  0  0  0  0  0  0  0  0  0  0  0
  -10.1415    6.8103    1.5654 F   0  0  0  0  0  0  0  0  0  0  0  0
  -12.1348    7.3851    0.4575 C   0  0  0  0  0  0  0  0  0  0  0  0
  -12.5584    6.1173    0.5569 F   0  0  0  0  0  0  0  0  0  0  0  0
  -14.3937    7.7679   -2.1514 N   0  0  0  0  0  0  0  0  0  0  0  0
  -15.5953    7.4946   -2.4423 N   0  0  0  0  0  0  0  0  0  0  0  0
  -18.2778    8.9685   -1.1327 C   0  0  2  0  0  0  0  0  0  0  0  0
  -17.7159    9.3971    0.0413 O   0  0  0  0  0  0  0  0  0  0  0  0
  -22.5555    8.5879   -4.1514 C   0  0  0  0  0  0  0  0  0  0  0  0
  -23.9499    8.5908   -4.3867 C   0  0  0  0  0  0  0  0  0  0  0  0
 18 19  4  0
 17 18  1  0
 18 27  4  0
 19 21  4  0
 19 20  1  0
  2  1  1  0
  3  2  4  0
 34  2  4  0
  4  3  4  0
  5  4  4  0
 33 34  4  0
  5 33  4  0
  6  5  1  0
 31  7  1  0
  7  8  1  0
  7  6  1  1
  9 10  1  1
 12  9  1  0
  9  8  1  0
 10 11  1  0
 14 12  1  0
 12 13  1  1
 14 31  1  0
 14 15  1  1
 16 17  4  0
 16 15  4  0
 17 29  4  0
 21 23  4  0
 21 22  1  0
 23 25  4  0
 23 24  1  0
 25 27  4  0
 25 26  1  0
 27 28  1  0
 31 32  1  6
 15 30  4  0
 29 30  4  0
M  END
$$$$
