
     RDKit          3D

 34 37  0  0  0  0  0  0  0  0999 V2000
  -25.6929    9.5389   -3.9132 C   0  0  0  0  0  0  0  0  0  0  0  0
  -24.1651    9.4598   -3.9514 C   0  0  0  0  0  0  0  0  0  0  0  0
  -23.4243    9.4487   -5.1672 C   0  0  0  0  0  0  0  0  0  0  0  0
  -22.0020    9.4575   -5.1520 C   0  0  0  0  0  0  0  0  0  0  0  0
  -21.3049    9.5388   -3.9100 C   0  0  0  0  0  0  0  0  0  0  0  0
  -19.4995    9.4326   -3.9337 S   0  0  0  0  0  0  0  0  0  0  0  0
  -18.9460    9.8165   -2.1650 C   0  0  1  0  0  0  0  0  0  0  0  0
  -19.6437    8.9939   -1.2763 O   0  0  0  0  0  0  0  0  0  0  0  0
  -19.4315    7.6625   -1.4685 C   0  0  2  0  0  0  0  0  0  0  0  0
  -20.3222    6.9538   -0.6148 C   0  0  0  0  0  0  0  0  0  0  0  0
  -21.5199    6.4888   -1.1298 O   0  0  0  0  0  0  0  0  0  0  0  0
  -17.9544    7.2945   -1.2506 C   0  0  2  0  0  0  0  0  0  0  0  0
  -17.5558    7.5543    0.0978 O   0  0  0  0  0  0  0  0  0  0  0  0
  -17.1049    8.2081   -2.1569 C   0  0  2  0  0  0  0  0  0  0  0  0
  -15.7298    7.8808   -2.0687 N   0  0  0  0  0  0  0  0  0  0  0  0
  -14.8196    8.1534   -1.0705 C   0  0  0  0  0  0  0  0  0  0  0  0
  -13.5227    8.2324   -1.6446 C   0  0  0  0  0  0  0  0  0  0  0  0
  -12.2950    8.8631   -1.1409 C   0  0  0  0  0  0  0  0  0  0  0  0
  -11.0912    8.8471   -1.8018 C   0  0  0  0  0  0  0  0  0  0  0  0
  -11.1081    7.9701   -2.7703 F   0  0  0  0  0  0  0  0  0  0  0  0
   -9.9608    9.5160   -1.4361 C   0  0  0  0  0  0  0  0  0  0  0  0
   -8.8869    9.4352   -2.1684 F   0  0  0  0  0  0  0  0  0  0  0  0
   -9.9104   10.1589   -0.2081 C   0  0  0  0  0  0  0  0  0  0  0  0
   -8.9598   11.1246    0.1510 O   0  0  0  0  0  0  0  0  0  0  0  0
  -11.0679    9.9841    0.6330 C   0  0  0  0  0  0  0  0  0  0  0  0
  -10.8850   10.1170    1.9518 F   0  0  0  0  0  0  0  0  0  0  0  0
  -12.2328    9.4247    0.0286 C   0  0  0  0  0  0  0  0  0  0  0  0
  -13.2942    9.3502    0.7678 F   0  0  0  0  0  0  0  0  0  0  0  0
  -13.7528    7.7462   -3.0211 N   0  0  0  0  0  0  0  0  0  0  0  0
  -15.0228    7.5138   -3.2326 N   0  0  0  0  0  0  0  0  0  0  0  0
  -17.4506    9.6496   -1.9746 C   0  0  2  0  0  0  0  0  0  0  0  0
  -17.0873   10.0421   -0.6519 O   0  0  0  0  0  0  0  0  0  0  0  0
  -21.9981    9.6190   -2.7257 C   0  0  0  0  0  0  0  0  0  0  0  0
  -23.3772    9.4924   -2.7635 C   0  0  0  0  0  0  0  0  0  0  0  0
  9 10  1  1
 10 11  1  0
 17 16  4  0
 18 17  1  0
 17 29  4  0
 19 21  4  0
 21 23  4  0
 21 22  1  0
  2  1  1  0
  3  2  4  0
  2 34  4  0
  4  3  4  0
  5  4  4  0
  5 33  4  0
  6  5  1  0
 31  7  1  0
  7  8  1  0
  7  6  1  1
 12  9  1  0
  9  8  1  0
 14 12  1  0
 12 13  1  1
 14 31  1  0
 14 15  1  1
 16 15  4  0
 18 19  4  0
 18 27  4  0
 19 20  1  0
 23 25  4  0
 23 24  1  0
 25 27  4  0
 25 26  1  0
 27 28  1  0
 31 32  1  6
 33 34  4  0
 15 30  4  0
 29 30  4  0
M  END
$$$$
