
     RDKit          3D

 36 39  0  0  0  0  0  0  0  0999 V2000
  -26.0942    6.9811   -3.2391 C   0  0  0  0  0  0  0  0  0  0  0  0
  -24.6665    7.5589   -3.4225 C   0  0  0  0  0  0  0  0  0  0  0  0
  -24.4337    8.8802   -3.8334 C   0  0  0  0  0  0  0  0  0  0  0  0
  -23.1800    9.4279   -3.8805 C   0  0  0  0  0  0  0  0  0  0  0  0
  -22.1327    8.8010   -3.1289 C   0  0  0  0  0  0  0  0  0  0  0  0
  -20.7746    9.6980   -2.4834 S   0  0  0  0  0  0  0  0  0  0  0  0
  -19.7328    8.3975   -1.6827 C   0  0  2  0  0  0  0  0  0  0  0  0
  -20.5521    7.4755   -0.9720 O   0  0  0  0  0  0  0  0  0  0  0  0
  -19.8333    6.3780   -0.3770 C   0  0  2  0  0  0  0  0  0  0  0  0
  -20.7902    5.4064    0.1653 C   0  0  0  0  0  0  0  0  0  0  0  0
  -22.1503    5.8158   -0.0268 O   0  0  0  0  0  0  0  0  0  0  0  0
  -18.8219    6.9448    0.5930 C   0  0  2  0  0  0  0  0  0  0  0  0
  -19.5438    7.4256    1.7282 O   0  0  0  0  0  0  0  0  0  0  0  0
  -17.9218    7.9815   -0.0300 C   0  0  1  0  0  0  0  0  0  0  0  0
  -16.7780    7.4626   -0.7598 N   0  0  0  0  0  0  0  0  0  0  0  0
  -15.6584    6.9527   -0.2998 C   0  0  0  0  0  0  0  0  0  0  0  0
  -14.6613    7.6039   -0.9306 C   0  0  0  0  0  0  0  0  0  0  0  0
  -13.4239    8.2301   -0.3736 C   0  0  0  0  0  0  0  0  0  0  0  0
  -13.4435    9.4523    0.3131 C   0  0  0  0  0  0  0  0  0  0  0  0
  -14.6613    9.8822    0.8021 F   0  0  0  0  0  0  0  0  0  0  0  0
  -12.3102   10.0884    0.6889 C   0  0  0  0  0  0  0  0  0  0  0  0
  -12.4606   11.2049    1.4164 F   0  0  0  0  0  0  0  0  0  0  0  0
  -11.0655    9.5457    0.4213 C   0  0  0  0  0  0  0  0  0  0  0  0
   -9.8350   10.3033    0.4160 N   0  0  0  0  0  0  0  0  0  0  0  0
   -8.7528    9.7012    0.3008 N   0  0  0  0  0  0  0  0  0  0  0  0
   -8.1224    8.7490   -0.2218 N   0  0  0  0  0  0  0  0  0  0  0  0
  -11.0581    8.2484   -0.1038 C   0  0  0  0  0  0  0  0  0  0  0  0
   -9.9032    7.5250   -0.0949 F   0  0  0  0  0  0  0  0  0  0  0  0
  -12.2028    7.6075   -0.3977 C   0  0  0  0  0  0  0  0  0  0  0  0
  -12.1841    6.2910   -0.5808 F   0  0  0  0  0  0  0  0  0  0  0  0
  -15.1647    8.1231   -2.1079 N   0  0  0  0  0  0  0  0  0  0  0  0
  -16.4831    8.0002   -1.9727 N   0  0  0  0  0  0  0  0  0  0  0  0
  -18.7238    9.0857   -0.7715 C   0  0  2  0  0  0  0  0  0  0  0  0
  -19.3861   10.0219    0.0328 O   0  0  0  0  0  0  0  0  0  0  0  0
  -22.3430    7.4431   -2.7716 C   0  0  0  0  0  0  0  0  0  0  0  0
  -23.6164    6.8706   -2.9217 C   0  0  0  0  0  0  0  0  0  0  0  0
 16 15  4  0
 14 15  1  1
 15 32  4  0
 24 25  2  3
 25 26  2  0
  5 35  4  0
 35 36  4  0
  4  3  4  0
  3  2  4  0
  5  4  4  0
  6  5  1  0
 33  7  1  0
  7  8  1  0
  7  6  1  1
  9 10  1  1
 10 11  1  0
 17 16  4  0
 29 18  4  0
 18 17  1  0
 19 18  4  0
 21 19  4  0
 23 21  4  0
 21 22  1  0
 27 29  4  0
 29 30  1  0
 14 33  1  0
 33 34  1  6
  2  1  1  0
 14 12  1  0
 12  9  1  0
 12 13  1  1
 17 31  4  0
 19 20  1  0
 23 27  4  0
 23 24  1  0
 27 28  1  0
  2 36  4  0
  9  8  1  0
 31 32  4  0
M  CHG  2  25   1  26  -1
M  END
$$$$
