
     RDKit          3D

 34 37  0  0  0  0  0  0  0  0999 V2000
  -26.4076    7.5809   -3.8351 C   0  0  0  0  0  0  0  0  0  0  0  0
  -24.9487    7.6056   -3.5766 C   0  0  0  0  0  0  0  0  0  0  0  0
  -24.0618    7.7011   -4.6333 C   0  0  0  0  0  0  0  0  0  0  0  0
  -22.6742    7.8177   -4.4514 C   0  0  0  0  0  0  0  0  0  0  0  0
  -22.0981    7.9539   -3.1590 C   0  0  0  0  0  0  0  0  0  0  0  0
  -20.4570    8.7150   -2.9183 S   0  0  0  0  0  0  0  0  0  0  0  0
  -20.1463    9.0332   -1.1888 C   0  0  1  0  0  0  0  0  0  0  0  0
  -20.7169    8.0609   -0.3750 O   0  0  0  0  0  0  0  0  0  0  0  0
  -20.2171    6.6856   -0.5939 C   0  0  2  0  0  0  0  0  0  0  0  0
  -21.0026    5.7108    0.2952 C   0  0  0  0  0  0  0  0  0  0  0  0
  -22.3244    5.7816   -0.0790 O   0  0  0  0  0  0  0  0  0  0  0  0
  -18.7153    6.7297   -0.3524 C   0  0  2  0  0  0  0  0  0  0  0  0
  -18.4340    6.9336    0.9661 O   0  0  0  0  0  0  0  0  0  0  0  0
  -18.0360    7.7794   -1.2882 C   0  0  2  0  0  0  0  0  0  0  0  0
  -16.5779    7.6857   -1.2093 N   0  0  0  0  0  0  0  0  0  0  0  0
  -15.8090    7.6667   -0.0295 C   0  0  0  0  0  0  0  0  0  0  0  0
  -14.4800    7.9340   -0.4303 C   0  0  0  0  0  0  0  0  0  0  0  0
  -13.3679    8.4803    0.3451 C   0  0  0  0  0  0  0  0  0  0  0  0
  -12.1101    7.8572    0.5009 C   0  0  0  0  0  0  0  0  0  0  0  0
  -12.1288    6.5495    0.5105 F   0  0  0  0  0  0  0  0  0  0  0  0
  -10.8920    8.5422    0.8088 C   0  0  0  0  0  0  0  0  0  0  0  0
   -9.7621    7.8360    0.9183 F   0  0  0  0  0  0  0  0  0  0  0  0
  -10.8324    9.9119    1.0725 C   0  0  0  0  0  0  0  0  0  0  0  0
   -9.6693   10.6678    1.0929 N   0  0  0  0  0  0  0  0  0  0  0  0
  -12.1124   10.4899    1.1763 C   0  0  0  0  0  0  0  0  0  0  0  0
  -12.2063   11.6515    1.9157 F   0  0  0  0  0  0  0  0  0  0  0  0
  -13.2956    9.8088    0.8001 C   0  0  0  0  0  0  0  0  0  0  0  0
  -14.4503   10.3909    0.9607 F   0  0  0  0  0  0  0  0  0  0  0  0
  -14.4986    7.8324   -1.8360 N   0  0  0  0  0  0  0  0  0  0  0  0
  -15.6904    7.7527   -2.2877 N   0  0  0  0  0  0  0  0  0  0  0  0
  -18.6085    9.1729   -0.9992 C   0  0  2  0  0  0  0  0  0  0  0  0
  -18.3108    9.4506    0.3058 O   0  0  0  0  0  0  0  0  0  0  0  0
  -22.9957    7.6638   -2.0720 C   0  0  0  0  0  0  0  0  0  0  0  0
  -24.4083    7.6134   -2.3048 C   0  0  0  0  0  0  0  0  0  0  0  0
  9 10  1  1
 10 11  1  0
 17 16  4  0
 18 17  1  0
 17 29  4  0
 19 21  4  0
 21 23  4  0
 21 22  1  0
  2  1  1  0
  3  2  4  0
  2 34  4  0
  4  3  4  0
  5  4  4  0
  5 33  4  0
  6  5  1  0
 31  7  1  0
  7  8  1  0
  7  6  1  1
 12  9  1  0
  9  8  1  0
 14 12  1  0
 12 13  1  1
 14 31  1  0
 14 15  1  1
 16 15  4  0
 18 19  4  0
 18 27  4  0
 19 20  1  0
 23 25  4  0
 23 24  1  0
 25 27  4  0
 25 26  1  0
 27 28  1  0
 31 32  1  6
 33 34  4  0
 15 30  4  0
 29 30  4  0
M  END
$$$$
