
     RDKit          3D

 35 38  0  0  0  0  0  0  0  0999 V2000
   -8.4094    9.4378    1.1212 C   0  0  0  0  0  0  0  0  0  0  0  0
   -9.7837    9.9270    1.1452 N   0  0  0  0  0  0  0  0  0  0  0  0
  -10.9924    9.1359    0.9263 C   0  0  0  0  0  0  0  0  0  0  0  0
  -12.1995    9.4372    1.5302 C   0  0  0  0  0  0  0  0  0  0  0  0
  -12.2374   10.3730    2.4687 F   0  0  0  0  0  0  0  0  0  0  0  0
  -13.4105    8.8970    1.0971 C   0  0  0  0  0  0  0  0  0  0  0  0
  -14.4919    8.9781    1.9171 F   0  0  0  0  0  0  0  0  0  0  0  0
  -13.4676    8.1044   -0.0126 C   0  0  0  0  0  0  0  0  0  0  0  0
  -14.7956    7.7555   -0.6378 C   0  0  0  0  0  0  0  0  0  0  0  0
  -16.0146    7.4926   -0.1010 C   0  0  0  0  0  0  0  0  0  0  0  0
  -16.7904    7.2311   -1.1770 N   0  0  0  0  0  0  0  0  0  0  0  0
  -18.2667    7.3012   -1.2482 C   0  0  2  0  0  0  0  0  0  0  0  0
  -18.7967    8.7489   -1.5237 C   0  0  2  0  0  0  0  0  0  0  0  0
  -18.4826    9.5535   -0.3920 O   0  0  0  0  0  0  0  0  0  0  0  0
  -20.3071    8.5199   -1.5951 C   0  0  2  0  0  0  0  0  0  0  0  0
  -21.2313   10.0218   -2.0019 S   0  0  0  0  0  0  0  0  0  0  0  0
  -22.3592    9.2173   -3.1497 C   0  0  0  0  0  0  0  0  0  0  0  0
  -23.1604    8.2123   -2.6443 C   0  0  0  0  0  0  0  0  0  0  0  0
  -24.4482    8.0167   -3.2004 C   0  0  0  0  0  0  0  0  0  0  0  0
  -24.8784    8.7659   -4.2623 C   0  0  0  0  0  0  0  0  0  0  0  0
  -26.3300    8.9240   -4.5298 C   0  0  0  0  0  0  0  0  0  0  0  0
  -23.9905    9.6008   -4.8959 C   0  0  0  0  0  0  0  0  0  0  0  0
  -22.7153    9.8162   -4.3704 C   0  0  0  0  0  0  0  0  0  0  0  0
  -20.7838    8.0317   -0.3792 O   0  0  0  0  0  0  0  0  0  0  0  0
  -20.3965    6.6641   -0.2322 C   0  0  2  0  0  0  0  0  0  0  0  0
  -21.1819    6.1854    0.9980 C   0  0  0  0  0  0  0  0  0  0  0  0
  -22.4555    5.7929    0.5551 O   0  0  0  0  0  0  0  0  0  0  0  0
  -18.9031    6.5948   -0.0493 C   0  0  2  0  0  0  0  0  0  0  0  0
  -18.5641    7.2465    1.1251 O   0  0  0  0  0  0  0  0  0  0  0  0
  -16.0381    7.1085   -2.2600 N   0  0  0  0  0  0  0  0  0  0  0  0
  -14.8397    7.4773   -1.9797 N   0  0  0  0  0  0  0  0  0  0  0  0
  -12.2757    7.7819   -0.6125 C   0  0  0  0  0  0  0  0  0  0  0  0
  -12.2819    7.1753   -1.8111 F   0  0  0  0  0  0  0  0  0  0  0  0
  -11.0590    8.1899   -0.0934 C   0  0  0  0  0  0  0  0  0  0  0  0
   -9.9880    7.4507   -0.3988 F   0  0  0  0  0  0  0  0  0  0  0  0
 13 15  1  0
 15 24  1  0
 15 16  1  1
 17 18  4  0
 18 19  4  0
 17 23  4  0
 16 17  1  0
 25 26  1  1
 26 27  1  0
 12 28  1  0
 12 13  1  0
 12 11  1  1
 28 25  1  0
 28 29  1  1
 19 20  4  0
 25 24  1  0
  9 10  4  0
 10 11  4  0
  2  1  1  0
  4  3  4  0
  3 34  4  0
  3  2  1  0
  6  4  4  0
  4  5  1  0
  8  6  4  0
  6  7  1  0
  8  9  1  0
  8 32  4  0
  9 31  4  0
 20 21  1  0
 20 22  4  0
 22 23  4  0
 13 14  1  6
 32 34  4  0
 32 33  1  0
 34 35  1  0
 11 30  4  0
 30 31  4  0
M  END
$$$$
