
     RDKit          3D

 47 47  0  0  0  0  0  0  0  0999 V2000
  -13.6750   -9.5280    3.4370 C   0  0  0  0  0  0  0  0  0  0  0  0
  -14.9010   -8.6250    3.5950 C   0  0  2  0  0  0  0  0  0  0  0  0
  -15.4950   -8.3350    2.2960 N   0  0  0  0  0  0  0  0  0  0  0  0
  -14.5170   -7.3380    4.3170 C   0  0  0  0  0  0  0  0  0  0  0  0
  -14.5460   -6.2530    3.7340 O   0  0  0  0  0  0  0  0  0  0  0  0
  -14.1620   -7.4650    5.5910 N   0  0  0  0  0  0  0  0  0  0  0  0
  -13.7330   -6.3160    6.3710 C   0  0  1  0  0  0  0  0  0  0  0  0
  -13.9230   -6.5790    7.8650 C   0  0  0  0  0  0  0  0  0  0  0  0
  -12.2740   -5.9880    6.0800 C   0  0  0  0  0  0  0  0  0  0  0  0
  -11.4790   -6.8570    5.7090 O   0  0  0  0  0  0  0  0  0  0  0  0
  -11.9250   -4.7150    6.2510 N   0  0  0  0  0  0  0  0  0  0  0  0
  -10.5760   -4.2370    5.9960 C   0  0  1  0  0  0  0  0  0  0  0  0
  -10.5300   -3.3150    4.7700 C   0  0  0  0  0  0  0  0  0  0  0  0
  -11.2360   -1.9940    5.0080 C   0  0  0  0  0  0  0  0  0  0  0  0
  -12.4810   -1.9600    4.9270 O   0  0  0  0  0  0  0  0  0  0  0  0
  -10.5450   -0.9900    5.2800 O   0  0  0  0  0  0  0  0  0  0  0  0
  -10.0490   -3.5060    7.2230 C   0  0  0  0  0  0  0  0  0  0  0  0
  -10.7970   -3.1540    8.1390 O   0  0  0  0  0  0  0  0  0  0  0  0
   -8.7360   -3.2780    7.2280 N   0  0  0  0  0  0  0  0  0  0  0  0
   -8.0610   -2.5530    8.2930 C   0  0  2  0  0  0  0  0  0  0  0  0
   -7.1660   -1.4800    7.6880 C   0  0  0  0  0  0  0  0  0  0  0  0
   -6.7460   -1.5800    6.5320 O   0  0  0  0  0  0  0  0  0  0  0  0
   -6.8890   -0.4440    8.4770 N   0  0  0  0  0  0  0  0  0  0  0  0
   -5.9860    0.6280    8.0810 C   0  0  2  0  0  0  0  0  0  0  0  0
   -4.6110    0.4870    8.7220 C   0  0  0  0  0  0  0  0  0  0  0  0
   -3.8320    1.4450    8.7270 O   0  0  0  0  0  0  0  0  0  0  0  0
   -4.2950   -0.6940    9.2340 N   0  0  0  0  0  0  0  0  0  0  0  0
   -3.1320   -0.9880   10.0590 C   0  0  2  0  0  0  0  0  0  0  0  0
   -2.4990   -2.2720    9.5210 C   0  0  0  0  0  0  0  0  0  0  0  0
   -3.1850   -3.0350    8.8280 O   0  0  0  0  0  0  0  0  0  0  0  0
   -1.1930   -2.5370    9.7500 N   0  0  0  0  0  0  0  0  0  0  0  0
   -0.0640   -1.6400   10.0620 C   0  0  0  0  0  0  0  0  0  0  0  0
    1.0840   -2.5800   10.2740 C   0  0  0  0  0  0  0  0  0  0  0  0
    0.7900   -3.7820    9.4490 C   0  0  0  0  0  0  0  0  0  0  0  0
   -0.7410   -3.8920    9.4060 C   0  0  1  0  0  0  0  0  0  0  0  0
   -1.2490   -4.9390   10.3910 C   0  0  0  0  0  0  0  0  0  0  0  0
   -1.8670   -5.9110    9.9600 O   0  0  0  0  0  0  0  0  0  0  0  0
   -1.0270   -4.7840   11.5910 O   0  0  0  0  0  0  0  0  0  0  0  0
   -3.5950   -1.1180   11.5170 C   0  0  1  0  0  0  0  0  0  0  0  0
   -2.4740   -1.5060   12.4620 C   0  0  0  0  0  0  0  0  0  0  0  0
   -4.1690    0.1230   11.9510 O   0  0  0  0  0  0  0  0  0  0  0  0
   -6.5930    1.9910    8.4300 C   0  0  1  0  0  0  0  0  0  0  0  0
   -8.0840    2.0090    8.1150 C   0  0  0  0  0  0  0  0  0  0  0  0
   -6.4040    2.2640    9.8230 O   0  0  0  0  0  0  0  0  0  0  0  0
   -7.2240   -3.4950    9.1770 C   0  0  1  0  0  0  0  0  0  0  0  0
   -6.1620   -4.2100    8.3470 C   0  0  0  0  0  0  0  0  0  0  0  0
   -6.5880   -2.7430   10.2180 O   0  0  0  0  0  0  0  0  0  0  0  0
  3  2  1  0
  2  4  1  0
  2  1  1  6
  4  5  2  0
  4  6  1  0
  6  7  1  0
  7  9  1  0
  7  8  1  1
  9 10  2  0
  9 11  1  0
 11 12  1  0
 12 17  1  0
 12 13  1  6
 17 18  2  0
 17 19  1  0
 13 14  1  0
 14 15  2  0
 14 16  1  0
 20 19  1  6
 20 21  1  0
 20 45  1  0
 21 22  2  0
 21 23  1  0
 45 47  1  0
 45 46  1  6
 24 23  1  1
 24 25  1  0
 24 42  1  0
 25 26  2  0
 25 27  1  0
 42 44  1  0
 42 43  1  1
 28 27  1  6
 28 29  1  0
 28 39  1  0
 29 30  2  0
 29 31  1  0
 39 41  1  0
 39 40  1  1
 31 35  1  0
 31 32  1  0
 35 36  1  1
 35 34  1  0
 36 38  1  0
 36 37  2  0
 34 33  1  0
 33 32  1  0
M  CHG  1   3   1
M  END
$$$$
