
     RDKit          3D

 46 48  0  0  0  0  0  0  0  0999 V2000
   -0.3854  -15.6073   11.6463 C   0  0  0  0  0  0  0  0  0  0  0  0
   -1.4229  -15.0852   12.6371 N   0  0  0  0  0  0  0  0  0  0  0  0
   -1.0992  -15.4357   13.9890 N   0  0  0  0  0  0  0  0  0  0  0  0
    0.1603  -15.6269   14.3407 C   0  0  0  0  0  0  0  0  0  0  0  0
    0.8228  -14.7982   15.0290 O   0  0  0  0  0  0  0  0  0  0  0  0
    0.9149  -16.7233   13.6186 C   0  0  0  0  0  0  0  0  0  0  0  0
    1.3193  -16.2797   12.2010 C   0  0  0  0  0  0  0  0  0  0  0  0
    1.5464  -14.7237   12.0887 C   0  0  1  0  0  0  0  0  0  0  0  0
    2.3545  -14.3096   13.2413 N   0  0  0  0  0  0  0  0  0  0  0  0
    2.3648  -15.0255   14.4104 C   0  0  0  0  0  0  0  0  0  0  0  0
    3.3672  -14.9050   15.1254 O   0  0  0  0  0  0  0  0  0  0  0  0
    1.4368  -15.8688   14.5177 O   0  0  0  0  0  0  0  0  0  0  0  0
    0.5752  -15.8397   15.7290 C   0  0  0  0  0  0  0  0  0  0  0  0
   -0.8362  -15.6810   15.3754 C   0  0  0  0  0  0  0  0  0  0  0  0
   -1.6987  -16.7657   15.2949 C   0  0  0  0  0  0  0  0  0  0  0  0
   -2.9411  -16.7655   14.5552 C   0  0  0  0  0  0  0  0  0  0  0  0
   -3.2683  -15.5404   13.9231 C   0  0  0  0  0  0  0  0  0  0  0  0
   -2.4293  -14.4458   14.0468 C   0  0  0  0  0  0  0  0  0  0  0  0
   -1.2436  -14.4501   14.7943 C   0  0  0  0  0  0  0  0  0  0  0  0
    2.2384  -14.4496   10.7331 C   0  0  0  0  0  0  0  0  0  0  0  0
    2.7877  -15.3752   10.1303 O   0  0  0  0  0  0  0  0  0  0  0  0
    1.7963  -13.3003   10.2081 N   0  0  0  0  0  0  0  0  0  0  0  0
    2.5679  -12.4053    9.3610 C   0  0  2  0  0  0  0  0  0  0  0  0
    2.2586  -10.9331    9.6874 C   0  0  0  0  0  0  0  0  0  0  0  0
    2.1678  -10.0483    8.4590 C   0  0  0  0  0  0  0  0  0  0  0  0
    1.0398   -8.9983    8.4588 C   0  0  0  0  0  0  0  0  0  0  0  0
    1.6093   -7.5791    8.5050 C   0  0  0  0  0  0  0  0  0  0  0  0
    0.4384   -6.6250    8.5362 N   0  0  0  0  0  0  0  0  0  0  0  0
    2.5255  -12.7332    7.8224 C   0  0  1  0  0  0  0  0  0  0  0  0
    1.3412  -12.9291    7.3969 O   0  0  0  0  0  0  0  0  0  0  0  0
    3.3190  -11.7616    6.9805 C   0  0  0  0  0  0  0  0  0  0  0  0
    3.1359  -11.6983    5.7441 O   0  0  0  0  0  0  0  0  0  0  0  0
    4.3303  -11.0547    7.6476 N   0  0  0  0  0  0  0  0  0  0  0  0
    5.5293  -11.7458    8.0835 C   0  0  0  0  0  0  0  0  0  0  0  0
    5.5654  -13.1218    7.8065 C   0  0  0  0  0  0  0  0  0  0  0  0
    5.6644  -13.6252    6.4776 C   0  0  0  0  0  0  0  0  0  0  0  0
    5.8125  -15.0294    6.3299 C   0  0  0  0  0  0  0  0  0  0  0  0
    5.8611  -15.8710    7.3969 C   0  0  0  0  0  0  0  0  0  0  0  0
    5.7241  -15.3706    8.7206 C   0  0  0  0  0  0  0  0  0  0  0  0
    5.5761  -14.0202    8.8685 C   0  0  0  0  0  0  0  0  0  0  0  0
   -2.0302  -13.8859   12.4220 C   0  0  0  0  0  0  0  0  0  0  0  0
   -2.3802  -13.4329   11.0996 C   0  0  0  0  0  0  0  0  0  0  0  0
   -3.6307  -12.8382   10.8877 C   0  0  0  0  0  0  0  0  0  0  0  0
   -4.4230  -12.4855   11.9737 C   0  0  0  0  0  0  0  0  0  0  0  0
   -4.0179  -12.7007   13.3021 C   0  0  0  0  0  0  0  0  0  0  0  0
   -2.7312  -13.2623   13.5329 C   0  0  0  0  0  0  0  0  0  0  0  0
 36 37  4  0
 36 35  4  0
 37 38  4  0
 38 39  4  0
 39 40  4  0
 40 35  4  0
 35 34  1  0
 34 33  1  0
 33 31  1  0
 31 32  2  0
 31 29  1  0
 29 30  1  1
 29 23  1  0
 23 24  1  1
 23 22  1  0
 24 25  1  0
 25 26  1  0
 26 27  1  0
 27 28  1  0
 22 20  1  0
 20 21  2  0
 20  8  1  0
  8  9  1  0
  8  7  1  6
  9 10  1  0
 10 11  2  0
 10 12  1  0
 12 13  1  0
 13 14  1  0
 14 15  4  0
 14 19  4  0
 15 16  4  0
 16 17  4  0
 17 18  4  0
 18 19  4  0
  7  6  1  0
  6  4  1  0
  4  5  2  0
  4  3  1  0
  3  2  1  0
  2  1  1  0
  2 41  1  0
 41 42  4  0
 41 46  4  0
 42 43  4  0
 43 44  4  0
 44 45  4  0
 45 46  4  0
M  CHG  1  28   1
M  END
$$$$
