
     RDKit          3D

 37 42  0  0  0  0  0  0  0  0999 V2000
   90.6500   52.5147  270.4469 C   0  0  0  0  0  0  0  0  0  0  0  0
   92.0372   52.6853  269.9772 N   0  0  0  0  0  0  0  0  0  0  0  0
   92.8613   53.6232  270.4494 C   0  0  0  0  0  0  0  0  0  0  0  0
   93.8193   53.8322  269.5253 C   0  0  0  0  0  0  0  0  0  0  0  0
   93.6233   52.8983  268.5521 C   0  0  0  0  0  0  0  0  0  0  0  0
   94.3952   52.5055  267.5390 C   0  0  0  0  0  0  0  0  0  0  0  0
   94.2103   51.2364  266.9647 C   0  0  0  0  0  0  0  0  0  0  0  0
   93.2577   50.4159  267.3864 C   0  0  0  0  0  0  0  0  0  0  0  0
   92.9973   49.1831  266.8227 C   0  0  0  0  0  0  0  0  0  0  0  0
   91.6595   48.8803  266.3996 C   0  0  0  0  0  0  0  0  0  0  0  0
   91.1967   47.5685  266.3537 C   0  0  0  0  0  0  0  0  0  0  0  0
   89.8673   47.3644  266.2254 N   0  0  0  0  0  0  0  0  0  0  0  0
   89.3234   46.7855  265.1871 C   0  0  0  0  0  0  0  0  0  0  0  0
   89.8012   46.9298  263.9005 C   0  0  0  0  0  0  0  0  0  0  0  0
   89.3553   46.0822  262.8392 N   0  0  0  0  0  0  0  0  0  0  0  0
   88.4656   45.0699  263.1462 C   0  0  0  0  0  0  0  0  0  0  0  0
   87.9481   44.9516  264.4576 C   0  0  0  0  0  0  0  0  0  0  0  0
   88.2608   45.8823  265.4041 C   0  0  0  0  0  0  0  0  0  0  0  0
   87.3663   46.0814  266.4931 C   0  0  0  0  0  0  0  0  0  0  0  0
   87.2310   47.2354  266.9957 O   0  0  0  0  0  0  0  0  0  0  0  0
   86.4000   45.1642  266.7450 N   0  0  0  0  0  0  0  0  0  0  0  0
   85.2235   45.5852  267.5069 C   0  0  2  0  0  0  0  0  0  0  0  0
   85.5226   45.6014  268.9776 C   0  0  0  0  0  0  0  0  0  0  0  0
   85.5878   44.1679  269.5818 C   0  0  0  0  0  0  0  0  0  0  0  0
   84.2996   43.4497  269.2603 C   0  0  0  0  0  0  0  0  0  0  0  0
   84.0525   43.4451  267.8550 N   0  0  1  0  0  0  0  0  0  0  0  0
   82.7060   42.8762  267.5791 C   0  0  0  0  0  0  0  0  0  0  0  0
   84.0652   44.7645  267.1960 C   0  0  0  0  0  0  0  0  0  0  0  0
   92.1126   46.5131  266.5829 C   0  0  0  0  0  0  0  0  0  0  0  0
   93.4626   46.8052  266.7974 C   0  0  0  0  0  0  0  0  0  0  0  0
   94.3715   45.8002  266.7750 N   0  0  0  0  0  0  0  0  0  0  0  0
   95.7476   46.0826  266.8313 C   0  0  0  0  0  0  0  0  0  0  0  0
   96.1584   47.4252  266.9088 C   0  0  0  0  0  0  0  0  0  0  0  0
   95.2350   48.4162  266.8618 N   0  0  0  0  0  0  0  0  0  0  0  0
   93.9066   48.1503  266.8653 C   0  0  0  0  0  0  0  0  0  0  0  0
   92.3833   50.9145  268.3640 C   0  0  0  0  0  0  0  0  0  0  0  0
   92.5834   52.1062  268.9366 C   0  0  0  0  0  0  0  0  0  0  0  0
 23 24  1  0
 23 22  1  0
 24 25  1  0
 25 26  1  0
 26 27  1  6
 26 28  1  0
 28 22  1  0
 22 21  1  1
 21 19  1  0
 19 20  2  0
 19 18  1  0
 18 17  4  0
 18 13  4  0
 17 16  4  0
 16 15  4  0
 15 14  4  0
 14 13  4  0
 13 12  1  0
 12 11  1  0
 11 10  4  0
 11 29  4  0
 10  9  4  0
 29 30  4  0
 30 31  4  0
 30 35  4  0
 31 32  4  0
 32 33  4  0
 33 34  4  0
 34 35  4  0
 35  9  4  0
  9  8  1  0
  8 36  4  0
  8  7  4  0
 36 37  4  0
 37  2  4  0
 37  5  4  0
  2  1  1  0
  2  3  4  0
  3  4  4  0
  4  5  4  0
  5  6  4  0
  6  7  4  0
M  CHG  1  26   1
M  END
$$$$
