
     RDKit          3D

 36 41  0  0  0  0  0  0  0  0999 V2000
  141.2575  -36.3033  269.4704 C   0  0  0  0  0  0  0  0  0  0  0  0
  142.6268  -36.2358  269.1959 N   0  0  0  0  0  0  0  0  0  0  0  0
  143.3595  -35.2784  269.6736 C   0  0  0  0  0  0  0  0  0  0  0  0
  144.4145  -35.0704  268.8049 C   0  0  0  0  0  0  0  0  0  0  0  0
  144.2882  -36.0205  267.8219 C   0  0  0  0  0  0  0  0  0  0  0  0
  145.1427  -36.3428  266.8621 C   0  0  0  0  0  0  0  0  0  0  0  0
  145.0450  -37.6352  266.3357 C   0  0  0  0  0  0  0  0  0  0  0  0
  144.0802  -38.5354  266.7945 C   0  0  0  0  0  0  0  0  0  0  0  0
  143.9537  -39.8088  266.0892 C   0  0  0  0  0  0  0  0  0  0  0  0
  142.6638  -40.2771  265.7363 C   0  0  0  0  0  0  0  0  0  0  0  0
  142.3386  -41.6514  265.6366 C   0  0  0  0  0  0  0  0  0  0  0  0
  141.0355  -41.9875  265.4752 N   0  0  0  0  0  0  0  0  0  0  0  0
  140.4349  -42.2637  264.2874 C   0  0  0  0  0  0  0  0  0  0  0  0
  141.0294  -42.0646  263.0393 C   0  0  0  0  0  0  0  0  0  0  0  0
  140.5849  -42.7359  261.9295 N   0  0  0  0  0  0  0  0  0  0  0  0
  139.4754  -43.5591  262.0038 C   0  0  0  0  0  0  0  0  0  0  0  0
  138.8867  -43.6820  263.2838 C   0  0  0  0  0  0  0  0  0  0  0  0
  139.2313  -42.9738  264.3990 C   0  0  0  0  0  0  0  0  0  0  0  0
  138.2265  -42.6667  265.3868 C   0  0  0  0  0  0  0  0  0  0  0  0
  137.6911  -41.5921  265.5599 O   0  0  0  0  0  0  0  0  0  0  0  0
  137.5418  -43.7323  265.9344 N   0  0  0  0  0  0  0  0  0  0  0  0
  136.2699  -43.5985  266.5229 C   0  0  2  0  0  0  0  0  0  0  0  0
  136.4185  -43.5580  268.0577 C   0  0  0  0  0  0  0  0  0  0  0  0
  135.6007  -44.7069  268.6088 C   0  0  0  0  0  0  0  0  0  0  0  0
  134.6455  -45.0052  267.5131 N   0  0  1  0  0  0  0  0  0  0  0  0
  133.4012  -44.2258  267.5643 C   0  0  0  0  0  0  0  0  0  0  0  0
  135.4590  -44.8181  266.2847 C   0  0  0  0  0  0  0  0  0  0  0  0
  143.3625  -42.5770  265.6936 C   0  0  0  0  0  0  0  0  0  0  0  0
  144.6876  -42.1315  265.9366 C   0  0  0  0  0  0  0  0  0  0  0  0
  145.6945  -43.0242  266.0321 N   0  0  0  0  0  0  0  0  0  0  0  0
  147.0242  -42.6517  266.1722 C   0  0  0  0  0  0  0  0  0  0  0  0
  147.3038  -41.3252  266.4188 C   0  0  0  0  0  0  0  0  0  0  0  0
  146.2581  -40.3832  266.3126 N   0  0  0  0  0  0  0  0  0  0  0  0
  144.9786  -40.7671  266.0639 C   0  0  0  0  0  0  0  0  0  0  0  0
  143.1599  -38.0780  267.6945 C   0  0  0  0  0  0  0  0  0  0  0  0
  143.2630  -36.8466  268.1685 C   0  0  0  0  0  0  0  0  0  0  0  0
 23 24  1  0
 23 22  1  0
 24 25  1  0
 25 26  1  1
 25 27  1  0
 27 22  1  0
 22 21  1  1
 21 19  1  0
 19 20  2  0
 19 18  1  0
 18 17  4  0
 18 13  4  0
 17 16  4  0
 16 15  4  0
 15 14  4  0
 14 13  4  0
 13 12  1  0
 12 11  1  0
 11 10  4  0
 11 28  4  0
 10  9  4  0
 28 29  4  0
 29 30  4  0
 29 34  4  0
 30 31  4  0
 31 32  4  0
 32 33  4  0
 33 34  4  0
 34  9  4  0
  9  8  1  0
  8 35  4  0
  8  7  4  0
 35 36  4  0
 36  2  4  0
 36  5  4  0
  2  1  1  0
  2  3  4  0
  3  4  4  0
  4  5  4  0
  5  6  4  0
  6  7  4  0
M  CHG  1  25   1
M  END
$$$$
