
     RDKit          3D

 38 43  0  0  0  0  0  0  0  0999 V2000
   91.4370   52.3910  270.8930 C   0  0  0  0  0  0  0  0  0  0  0  0
   92.5150   52.9520  270.0570 N   0  0  0  0  0  0  0  0  0  0  0  0
   93.1080   54.1290  270.2420 C   0  0  0  0  0  0  0  0  0  0  0  0
   94.0050   54.2710  269.2840 C   0  0  0  0  0  0  0  0  0  0  0  0
   93.9620   53.1900  268.4930 C   0  0  0  0  0  0  0  0  0  0  0  0
   94.6800   52.8610  267.4100 C   0  0  0  0  0  0  0  0  0  0  0  0
   94.4360   51.6590  266.7700 C   0  0  0  0  0  0  0  0  0  0  0  0
   93.4460   50.8030  267.2660 C   0  0  0  0  0  0  0  0  0  0  0  0
   93.1440   49.5660  266.6590 C   0  0  0  0  0  0  0  0  0  0  0  0
   91.8320   49.2820  266.2680 C   0  0  0  0  0  0  0  0  0  0  0  0
   91.4720   48.0730  265.6510 C   0  0  0  0  0  0  0  0  0  0  0  0
   90.1530   47.8900  265.3550 N   0  0  0  0  0  0  0  0  0  0  0  0
   89.7180   47.2030  264.2970 C   0  0  0  0  0  0  0  0  0  0  0  0
   90.4320   47.1710  263.1030 C   0  0  0  0  0  0  0  0  0  0  0  0
   89.9520   46.4710  262.0050 C   0  0  0  0  0  0  0  0  0  0  0  0
   88.7560   45.8000  262.1030 C   0  0  0  0  0  0  0  0  0  0  0  0
   88.0460   45.8370  263.2890 C   0  0  0  0  0  0  0  0  0  0  0  0
   88.4990   46.5300  264.3930 C   0  0  0  0  0  0  0  0  0  0  0  0
   87.4620   46.4360  265.8300 S   0  0  2  0  0  0  0  0  0  0  0  0
   86.0250   46.3180  265.3930 O   0  0  0  0  0  0  0  0  0  0  0  0
   87.5530   47.7250  266.6200 O   0  0  0  0  0  0  0  0  0  0  0  0
   87.9190   45.1210  266.7730 N   0  0  0  0  0  0  0  0  0  0  0  0
   89.3470   45.1840  267.1860 C   0  0  0  0  0  0  0  0  0  0  0  0
   89.7190   44.2360  268.1880 C   0  0  0  0  0  0  0  0  0  0  0  0
   91.0540   43.8420  268.3200 C   0  0  0  0  0  0  0  0  0  0  0  0
   91.4670   42.9010  269.2970 N   0  0  0  0  0  0  0  0  0  0  0  0
   90.5390   42.3320  270.1710 C   0  0  0  0  0  0  0  0  0  0  0  0
   89.1950   42.7250  270.0520 N   0  0  0  0  0  0  0  0  0  0  0  0
   88.7910   43.6670  269.0740 C   0  0  0  0  0  0  0  0  0  0  0  0
   92.4860   47.1170  265.4570 C   0  0  0  0  0  0  0  0  0  0  0  0
   93.8030   47.4020  265.8650 C   0  0  0  0  0  0  0  0  0  0  0  0
   94.7850   46.5020  265.6710 N   0  0  0  0  0  0  0  0  0  0  0  0
   96.1090   46.7570  266.0590 C   0  0  0  0  0  0  0  0  0  0  0  0
   96.4280   47.9650  266.6600 C   0  0  0  0  0  0  0  0  0  0  0  0
   95.4010   48.8880  266.8480 N   0  0  0  0  0  0  0  0  0  0  0  0
   94.1330   48.6220  266.4540 C   0  0  0  0  0  0  0  0  0  0  0  0
   92.7520   51.2020  268.4010 C   0  0  0  0  0  0  0  0  0  0  0  0
   93.0260   52.3700  268.9760 C   0  0  0  0  0  0  0  0  0  0  0  0
 37 38  2  0
 37  8  1  0
 38  2  1  0
 38  5  1  0
  2  1  1  0
  2  3  1  0
  3  4  2  0
  4  5  1  0
  5  6  2  0
  6  7  1  0
  7  8  2  0
  8  9  1  0
  9 10  2  0
  9 36  1  0
 10 11  1  0
 36 35  2  0
 36 31  1  0
 35 34  1  0
 34 33  2  0
 33 32  1  0
 32 31  2  0
 31 30  1  0
 30 11  2  0
 11 12  1  0
 12 13  1  0
 13 14  2  0
 13 18  1  0
 14 15  1  0
 15 16  2  0
 16 17  1  0
 17 18  2  0
 18 19  1  0
 19 20  2  0
 19 21  2  0
 19 22  1  1
 22 23  1  0
 23 24  1  0
 24 25  2  0
 24 29  1  0
 25 26  1  0
 26 27  2  0
 27 28  1  0
 28 29  2  0
M  END
$$$$
