
     RDKit          3D

 36 41  0  0  0  0  0  0  0  0999 V2000
  141.1520  -36.1070  268.6510 C   0  0  0  0  0  0  0  0  0  0  0  0
  142.1910  -35.5500  267.7820 N   0  0  0  0  0  0  0  0  0  0  0  0
  142.7300  -34.3420  267.8880 C   0  0  0  0  0  0  0  0  0  0  0  0
  143.6340  -34.1770  266.9160 C   0  0  0  0  0  0  0  0  0  0  0  0
  143.6330  -35.2970  266.1950 C   0  0  0  0  0  0  0  0  0  0  0  0
  144.3520  -35.6460  265.1330 C   0  0  0  0  0  0  0  0  0  0  0  0
  144.1700  -36.8850  264.5280 C   0  0  0  0  0  0  0  0  0  0  0  0
  143.2490  -37.7830  265.0560 C   0  0  0  0  0  0  0  0  0  0  0  0
  143.0430  -39.0370  264.4370 C   0  0  0  0  0  0  0  0  0  0  0  0
  141.7450  -39.3450  263.9910 C   0  0  0  0  0  0  0  0  0  0  0  0
  141.4080  -40.5470  263.3430 C   0  0  0  0  0  0  0  0  0  0  0  0
  140.0950  -40.7130  263.0620 N   0  0  0  0  0  0  0  0  0  0  0  0
  139.6100  -41.3350  261.9810 C   0  0  0  0  0  0  0  0  0  0  0  0
  140.3840  -41.5270  260.8360 C   0  0  0  0  0  0  0  0  0  0  0  0
  139.8770  -42.1450  259.7110 N   0  0  0  0  0  0  0  0  0  0  0  0
  138.5600  -42.5340  259.7080 C   0  0  0  0  0  0  0  0  0  0  0  0
  137.7790  -42.3360  260.8360 C   0  0  0  0  0  0  0  0  0  0  0  0
  138.2600  -41.7390  262.0050 C   0  0  0  0  0  0  0  0  0  0  0  0
  137.3950  -41.5570  263.1180 C   0  0  0  0  0  0  0  0  0  0  0  0
  137.7150  -40.8300  264.0380 O   0  0  0  0  0  0  0  0  0  0  0  0
  136.2190  -42.1970  263.1030 N   0  0  0  0  0  0  0  0  0  0  0  0
  135.3560  -42.1320  264.1170 C   0  0  0  0  0  0  0  0  0  0  0  0
  134.8150  -43.3470  264.5430 C   0  0  0  0  0  0  0  0  0  0  0  0
  133.8810  -43.3850  265.5590 N   0  0  0  0  0  0  0  0  0  0  0  0
  133.5080  -42.1980  266.1910 C   0  0  0  0  0  0  0  0  0  0  0  0
  134.0260  -40.9670  265.7760 N   0  0  0  0  0  0  0  0  0  0  0  0
  134.9450  -40.9440  264.7160 C   0  0  0  0  0  0  0  0  0  0  0  0
  142.4200  -41.5030  263.1470 C   0  0  0  0  0  0  0  0  0  0  0  0
  143.7220  -41.2030  263.5630 C   0  0  0  0  0  0  0  0  0  0  0  0
  144.6760  -42.0900  263.3200 N   0  0  0  0  0  0  0  0  0  0  0  0
  145.9990  -41.8450  263.7190 C   0  0  0  0  0  0  0  0  0  0  0  0
  146.3270  -40.6600  264.3630 C   0  0  0  0  0  0  0  0  0  0  0  0
  145.3320  -39.7170  264.5980 N   0  0  0  0  0  0  0  0  0  0  0  0
  144.0600  -39.9840  264.2110 C   0  0  0  0  0  0  0  0  0  0  0  0
  142.5440  -37.3750  266.1920 C   0  0  0  0  0  0  0  0  0  0  0  0
  142.7490  -36.1590  266.7340 C   0  0  0  0  0  0  0  0  0  0  0  0
 35 36  2  0
 35  8  1  0
 36  2  1  0
 36  5  1  0
  2  1  1  0
  2  3  1  0
  3  4  2  0
  4  5  1  0
  5  6  2  0
  6  7  1  0
  7  8  2  0
  8  9  1  0
  9 10  2  0
  9 34  1  0
 10 11  1  0
 34 33  2  0
 34 29  1  0
 33 32  1  0
 32 31  2  0
 31 30  1  0
 30 29  2  0
 29 28  1  0
 28 11  2  0
 11 12  1  0
 12 13  1  0
 13 14  2  0
 13 18  1  0
 14 15  1  0
 15 16  2  0
 16 17  1  0
 17 18  2  0
 18 19  1  0
 19 20  2  0
 19 21  1  0
 21 22  1  0
 22 23  2  0
 22 27  1  0
 23 24  1  0
 24 25  2  0
 25 26  1  0
 26 27  2  0
M  END
$$$$
