
     RDKit          3D

 23 26  0  0  0  0  0  0  0  0999 V2000
   24.8280    7.6200   27.0780 Cl  0  0  0  0  0  0  0  0  0  0  0  0
   24.4280    9.3320   26.7970 C   0  0  0  0  0  0  0  0  0  0  0  0
   24.7410   10.3010   27.7590 C   0  0  0  0  0  0  0  0  0  0  0  0
   24.4240   11.6460   27.5300 C   0  0  0  0  0  0  0  0  0  0  0  0
   23.7980   12.0100   26.3450 C   0  0  0  0  0  0  0  0  0  0  0  0
   23.4560   13.3800   26.0770 N   0  0  0  0  0  0  0  0  0  0  0  0
   22.2270   13.8820   26.6730 C   0  0  0  0  0  0  0  0  0  0  0  0
   21.6730   15.1530   26.0240 C   0  0  0  0  0  0  0  0  0  0  0  0
   21.4150   15.0110   24.6660 N   0  0  2  0  0  4  0  0  0  0  0  0
   20.1500   14.8570   24.4050 C   0  0  0  0  0  0  0  0  0  0  0  0
   19.7680   15.9100   23.3160 C   0  0  0  0  0  0  0  0  0  0  0  0
   20.6380   16.7890   22.7420 C   0  0  0  0  0  0  0  0  0  0  0  0
   19.9500   17.5340   21.8610 N   0  0  0  0  0  0  0  0  0  0  0  0
   18.6370   17.1610   21.8300 C   0  0  0  0  0  0  0  0  0  0  0  0
   17.5660   17.6250   21.0950 N   0  0  0  0  0  0  0  0  0  0  0  0
   16.3450   17.1330   21.2070 C   0  0  0  0  0  0  0  0  0  0  0  0
   16.1170   16.1000   22.1040 C   0  0  0  0  0  0  0  0  0  0  0  0
   17.1660   15.5750   22.8890 C   0  0  0  0  0  0  0  0  0  0  0  0
   18.4560   16.1510   22.7180 C   0  0  0  0  0  0  0  0  0  0  0  0
   22.1760   14.0870   24.0060 C   0  0  0  0  0  0  0  0  0  0  0  0
   23.5300   13.8040   24.6720 C   0  0  0  0  0  0  0  0  0  0  0  0
   23.4840   11.0400   25.3810 C   0  0  0  0  0  0  0  0  0  0  0  0
   23.8000    9.7020   25.6080 C   0  0  0  0  0  0  0  0  0  0  0  0
 17 16  2  0
 18 17  1  0
  7  8  1  0
  6  7  1  0
 20 21  1  0
 21  6  1  0
  9 20  1  0
  5  4  2  0
  5 22  1  0
  6  5  1  0
  4  3  1  0
  3  2  2  0
 23  2  1  0
  2  1  1  0
 22 23  2  0
 15 16  1  0
 19 18  2  0
 19 14  1  0
 11 19  1  0
 14 15  2  0
 13 14  1  0
 11 12  2  0
 12 13  1  0
 10 11  1  0
  9 10  1  1
  8  9  1  0
M  CHG  1   9   1
M  END
$$$$
