
     RDKit          3D

 23 26  0  0  0  0  0  0  0  0999 V2000
   24.6439   12.4981   22.7785 Cl  0  0  0  0  0  0  0  0  0  0  0  0
   23.1202   13.3749   22.6603 C   0  0  0  0  0  0  0  0  0  0  0  0
   21.9106   12.7093   22.4444 C   0  0  0  0  0  0  0  0  0  0  0  0
   20.6788   13.4110   22.5373 C   0  0  0  0  0  0  0  0  0  0  0  0
   20.6981   14.7519   22.6833 C   0  0  0  0  0  0  0  0  0  0  0  0
   19.6143   15.5717   22.1660 N   0  0  0  0  0  0  0  0  0  0  0  0
   19.7699   15.9724   20.7376 C   0  0  0  0  0  0  0  0  0  0  0  0
   19.0354   17.2301   20.3246 C   0  0  0  0  0  0  0  0  0  0  0  0
   19.4258   18.3346   21.0691 N   0  0  1  0  0  4  0  0  0  0  0  0
   18.6651   19.3693   20.9577 C   0  0  0  0  0  0  0  0  0  0  0  0
   17.3804   19.1512   21.7192 C   0  0  0  0  0  0  0  0  0  0  0  0
   16.6810   20.1744   22.4057 C   0  0  0  0  0  0  0  0  0  0  0  0
   15.3752   20.0031   22.1717 N   0  0  0  0  0  0  0  0  0  0  0  0
   15.1711   18.7356   21.6708 C   0  0  0  0  0  0  0  0  0  0  0  0
   13.9734   17.9981   21.5870 N   0  0  0  0  0  0  0  0  0  0  0  0
   13.9897   16.6771   21.5694 C   0  0  0  0  0  0  0  0  0  0  0  0
   15.1831   15.9656   21.5213 C   0  0  0  0  0  0  0  0  0  0  0  0
   16.4258   16.6882   21.5417 C   0  0  0  0  0  0  0  0  0  0  0  0
   16.3656   18.1075   21.5299 C   0  0  0  0  0  0  0  0  0  0  0  0
   19.7429   18.1086   22.3557 C   0  0  0  0  0  0  0  0  0  0  0  0
   19.3082   16.7532   22.9397 C   0  0  0  0  0  0  0  0  0  0  0  0
   21.8865   15.3983   23.0373 C   0  0  0  0  0  0  0  0  0  0  0  0
   23.1048   14.7616   22.8749 C   0  0  0  0  0  0  0  0  0  0  0  0
 17 16  4  0
 18 17  4  0
  7  8  1  0
  6  7  1  0
 20 21  1  0
 21  6  1  0
  9 20  1  0
  5  4  4  0
  5 22  4  0
  6  5  1  0
  4  3  4  0
  3  2  4  0
 23  2  4  0
  2  1  1  0
 22 23  4  0
 15 16  4  0
 19 18  4  0
 19 14  4  0
 11 19  4  0
 14 15  4  0
 13 14  4  0
 11 12  4  0
 12 13  4  0
 10 11  1  0
  9 10  1  6
  8  9  1  0
M  CHG  1   9   1
M  END
$$$$
