
     RDKit          3D

 17 18  0  0  0  0  0  0  0  0999 V2000
   15.6636   18.1620   75.6675 C   0  0  0  0  0  0  0  0  0  0  0  0
   15.4980   18.2739   77.0745 N   0  0  0  0  0  0  0  0  0  0  0  0
   14.2378   18.9495   77.4365 C   0  0  0  0  0  0  0  0  0  0  0  0
   13.3307   19.1413   76.2551 C   0  0  1  0  0  0  0  0  0  0  0  0
   13.3247   17.9477   75.5155 O   0  0  0  0  0  0  0  0  0  0  0  0
   11.8847   19.4322   76.7580 C   0  0  0  0  0  0  0  0  0  0  0  0
   11.8417   20.5367   77.5469 N   0  0  2  0  0  0  0  0  0  0  0  0
   11.2628   20.2572   78.7803 C   0  0  0  0  0  0  0  0  0  0  0  0
   10.7878   21.4411   79.5741 C   0  0  0  0  0  0  0  0  0  0  0  0
    9.3296   21.7658   79.3425 C   0  0  0  0  0  0  0  0  0  0  0  0
    8.7522   21.5904   77.8718 C   0  0  0  0  0  0  0  0  0  0  0  0
    7.3200   21.5536   77.6838 C   0  0  0  0  0  0  0  0  0  0  0  0
    6.7704   21.5006   76.3852 C   0  0  0  0  0  0  0  0  0  0  0  0
    7.6141   21.4850   75.2507 C   0  0  0  0  0  0  0  0  0  0  0  0
    9.0469   21.5120   75.4365 C   0  0  0  0  0  0  0  0  0  0  0  0
    9.6050   21.4950   76.7572 C   0  0  0  0  0  0  0  0  0  0  0  0
   11.1869   21.5705   76.9183 C   0  0  0  0  0  0  0  0  0  0  0  0
  4  3  1  0
  6  4  1  0
  4  5  1  6
  3  2  1  0
  2  1  1  0
  7  6  1  1
 17 16  1  0
 17  7  1  0
 16 15  4  0
 16 11  4  0
 15 14  4  0
 14 13  4  0
 13 12  4  0
 12 11  4  0
 11 10  1  0
 10  9  1  0
  9  8  1  0
  8  7  1  0
M  CHG  2   2   1   7   1
M  END
$$$$
