
     RDKit          3D

 23 24  0  0  0  0  0  0  0  0999 V2000
   -4.5720  -29.3070  -16.0870 O   0  0  0  0  0  0  0  0  0  0  0  0
   -5.7580  -29.0060  -15.2920 C   0  0  0  0  0  0  0  0  0  0  0  0
   -6.6190  -30.2440  -15.0670 C   0  0  1  0  0  0  0  0  0  0  0  0
   -5.8620  -31.1800  -14.3140 O   0  0  0  0  0  0  0  0  0  0  0  0
   -6.5720  -32.4110  -14.0950 C   0  0  2  0  0  0  0  0  0  0  0  0
   -6.8150  -33.0670  -15.3610 O   0  0  0  0  0  0  0  0  0  0  0  0
   -5.5870  -33.5750  -15.9560 C   0  0  1  0  0  0  0  0  0  0  0  0
   -4.9970  -34.5700  -15.1110 O   0  0  0  0  0  0  0  0  0  0  0  0
   -5.8430  -35.7310  -14.9940 C   0  0  2  0  0  0  0  0  0  0  0  0
   -5.1360  -36.7320  -14.0930 C   0  0  0  0  0  0  0  0  0  0  0  0
   -5.5230  -36.5170  -12.8150 O   0  0  0  0  0  0  0  0  0  0  0  0
   -6.0230  -36.3670  -16.3510 C   0  0  1  0  0  0  0  0  0  0  0  0
   -6.8480  -37.5190  -16.2160 O   0  0  0  0  0  0  0  0  0  0  0  0
   -6.6840  -35.3830  -17.2880 C   0  0  2  0  0  0  0  0  0  0  0  0
   -6.7910  -35.9540  -18.6170 O   0  0  0  0  0  0  0  0  0  0  0  0
   -5.8620  -34.1020  -17.3340 C   0  0  1  0  0  0  0  0  0  0  0  0
   -6.5200  -33.1320  -18.1440 O   0  0  0  0  0  0  0  0  0  0  0  0
   -7.8800  -32.1940  -13.3780 C   0  0  2  0  0  0  0  0  0  0  0  0
   -8.6150  -33.3930  -13.2720 O   0  0  0  0  0  0  0  0  0  0  0  0
   -8.7470  -31.2120  -14.1950 C   0  0  1  0  0  0  0  0  0  0  0  0
   -9.9230  -30.8280  -13.4600 O   0  0  0  0  0  0  0  0  0  0  0  0
   -7.9280  -29.9160  -14.3730 C   0  0  2  0  0  0  0  0  0  0  0  0
   -8.7160  -28.9020  -15.0600 O   0  0  0  0  0  0  0  0  0  0  0  0
  5 18  1  0
  5  6  1  6
  5  4  1  0
 18 20  1  0
 18 19  1  6
 20 22  1  0
 20 21  1  1
  3 22  1  0
 22 23  1  6
  3  2  1  1
  4  3  1  0
  2  1  1  0
  7  6  1  1
  7 16  1  0
  8  7  1  0
 14 16  1  0
 16 17  1  6
 12 14  1  0
 14 15  1  6
  9 12  1  0
 12 13  1  1
  9 10  1  1
  9  8  1  0
 11 10  1  0
M  END
$$$$
