
     RDKit          3D

 23 24  0  0  0  0  0  0  0  0999 V2000
   -3.6043  -29.7304  -14.2453 O   0  0  0  0  0  0  0  0  0  0  0  0
   -4.8456  -29.7530  -14.9691 C   0  0  0  0  0  0  0  0  0  0  0  0
   -6.0559  -30.0455  -14.1092 C   0  0  2  0  0  0  0  0  0  0  0  0
   -6.0554  -31.3432  -13.7737 O   0  0  0  0  0  0  0  0  0  0  0  0
   -6.7518  -32.3339  -14.5398 C   0  0  2  0  0  0  0  0  0  0  0  0
   -6.2991  -32.5057  -15.8918 O   0  0  0  0  0  0  0  0  0  0  0  0
   -6.1999  -33.8466  -16.2866 C   0  0  1  0  0  0  0  0  0  0  0  0
   -4.8389  -34.1993  -15.7851 C   0  0  2  0  0  0  0  0  0  0  0  0
   -3.7432  -33.5271  -16.4554 C   0  0  0  0  0  0  0  0  0  0  0  0
   -2.5908  -34.5163  -16.2551 O   0  0  0  0  0  0  0  0  0  0  0  0
   -4.5259  -35.5595  -15.7791 O   0  0  0  0  0  0  0  0  0  0  0  0
   -5.4686  -36.2671  -14.9428 C   0  0  2  0  0  0  0  0  0  0  0  0
   -5.2475  -37.6113  -14.7349 O   0  0  0  0  0  0  0  0  0  0  0  0
   -6.8329  -36.0551  -15.3039 C   0  0  2  0  0  0  0  0  0  0  0  0
   -7.2545  -36.7184  -16.5497 O   0  0  0  0  0  0  0  0  0  0  0  0
   -7.1645  -34.6158  -15.3401 C   0  0  1  0  0  0  0  0  0  0  0  0
   -7.0675  -34.1867  -13.9181 O   0  0  0  0  0  0  0  0  0  0  0  0
   -8.2603  -31.8162  -14.5990 C   0  0  1  0  0  0  0  0  0  0  0  0
   -8.8186  -31.8308  -13.2589 O   0  0  0  0  0  0  0  0  0  0  0  0
   -8.3341  -30.4742  -15.1992 C   0  0  2  0  0  0  0  0  0  0  0  0
   -8.4606  -30.3923  -16.6348 O   0  0  0  0  0  0  0  0  0  0  0  0
   -7.3420  -29.4860  -14.7061 C   0  0  2  0  0  0  0  0  0  0  0  0
   -7.0845  -28.4500  -15.6535 O   0  0  0  0  0  0  0  0  0  0  0  0
  5 18  1  0
  5  6  1  6
  5  4  1  0
 18 20  1  0
 18 19  1  6
 20 22  1  0
 20 21  1  1
  3 22  1  0
 22 23  1  6
  3  2  1  1
  4  3  1  0
  2  1  1  0
  7  6  1  6
 12 14  1  0
 12 13  1  6
 11 12  1  0
 16 14  1  0
 14 15  1  6
  7 16  1  0
 16 17  1  1
  8  7  1  0
  8  9  1  1
  8 11  1  0
 10  9  1  0
M  END
$$$$
