
     RDKit          3D

 23 24  0  0  0  0  0  0  0  0999 V2000
   -4.5570  -29.2500  -15.9210 O   0  0  0  0  0  0  0  0  0  0  0  0
   -5.7300  -29.0740  -15.0910 C   0  0  0  0  0  0  0  0  0  0  0  0
   -6.6340  -30.2630  -15.0390 C   0  0  1  0  0  0  0  0  0  0  0  0
   -5.8950  -31.2500  -14.2830 O   0  0  0  0  0  0  0  0  0  0  0  0
   -6.5680  -32.4900  -14.0560 C   0  0  2  0  0  0  0  0  0  0  0  0
   -6.8570  -33.2500  -15.2150 O   0  0  0  0  0  0  0  0  0  0  0  0
   -5.7920  -34.1250  -15.6140 C   0  0  2  0  0  0  0  0  0  0  0  0
   -6.1740  -34.4000  -17.0450 C   0  0  1  0  0  0  0  0  0  0  0  0
   -6.0740  -33.2760  -17.9520 C   0  0  0  0  0  0  0  0  0  0  0  0
   -4.6130  -32.9420  -17.8750 O   0  0  0  0  0  0  0  0  0  0  0  0
   -5.4840  -35.4550  -17.6400 O   0  0  0  0  0  0  0  0  0  0  0  0
   -5.7360  -36.6700  -16.9030 C   0  0  2  0  0  0  0  0  0  0  0  0
   -7.0150  -37.2170  -16.9990 O   0  0  0  0  0  0  0  0  0  0  0  0
   -5.3970  -36.5760  -15.4870 C   0  0  2  0  0  0  0  0  0  0  0  0
   -5.6100  -37.8530  -14.7470 O   0  0  0  0  0  0  0  0  0  0  0  0
   -6.0850  -35.4570  -14.8530 C   0  0  1  0  0  0  0  0  0  0  0  0
   -5.6190  -35.4820  -13.4600 O   0  0  0  0  0  0  0  0  0  0  0  0
   -7.8940  -32.1630  -13.3110 C   0  0  2  0  0  0  0  0  0  0  0  0
   -8.6800  -33.3570  -13.1460 O   0  0  0  0  0  0  0  0  0  0  0  0
   -8.7230  -31.1960  -14.1110 C   0  0  1  0  0  0  0  0  0  0  0  0
   -9.9300  -30.8590  -13.3480 O   0  0  0  0  0  0  0  0  0  0  0  0
   -7.9270  -29.9170  -14.2870 C   0  0  2  0  0  0  0  0  0  0  0  0
   -8.6510  -28.9490  -15.0490 O   0  0  0  0  0  0  0  0  0  0  0  0
  5 18  1  0
  5  6  1  6
  5  4  1  0
 18 20  1  0
 18 19  1  6
 20 22  1  0
 20 21  1  1
  3 22  1  0
 22 23  1  6
  3  2  1  1
  4  3  1  0
  2  1  1  0
  7  6  1  1
 12 14  1  0
 12 13  1  1
 11 12  1  0
 16 14  1  0
 14 15  1  1
  7 16  1  0
 16 17  1  1
  8  7  1  0
  8  9  1  6
  8 11  1  0
 10  9  1  0
M  END
$$$$
