
     RDKit          3D

 23 24  0  0  0  0  0  0  0  0999 V2000
   -4.4910  -29.1160  -16.0120 O   0  0  0  0  0  0  0  0  0  0  0  0
   -5.6530  -28.9620  -15.1810 C   0  0  0  0  0  0  0  0  0  0  0  0
   -6.5460  -30.1910  -15.1640 C   0  0  1  0  0  0  0  0  0  0  0  0
   -5.8000  -31.1980  -14.5150 O   0  0  0  0  0  0  0  0  0  0  0  0
   -6.4910  -32.4090  -14.3490 C   0  0  2  0  0  0  0  0  0  0  0  0
   -6.9410  -32.9480  -15.5860 O   0  0  0  0  0  0  0  0  0  0  0  0
   -5.8790  -33.1140  -16.5400 C   0  0  0  0  0  0  0  0  0  0  0  0
   -5.4680  -34.5790  -16.6540 C   0  0  1  0  0  0  0  0  0  0  0  0
   -5.0260  -35.0900  -15.3950 O   0  0  0  0  0  0  0  0  0  0  0  0
   -5.2610  -36.4960  -15.3150 C   0  0  1  0  0  0  0  0  0  0  0  0
   -4.0040  -37.1430  -15.1260 O   0  0  0  0  0  0  0  0  0  0  0  0
   -6.0990  -36.8010  -14.0810 C   0  0  0  0  0  0  0  0  0  0  0  0
   -5.4380  -36.2550  -12.9140 O   0  0  0  0  0  0  0  0  0  0  0  0
   -5.9160  -36.8960  -16.6130 C   0  0  1  0  0  0  0  0  0  0  0  0
   -6.8610  -37.9620  -16.4720 O   0  0  0  0  0  0  0  0  0  0  0  0
   -6.5190  -35.5740  -17.1020 C   0  0  2  0  0  0  0  0  0  0  0  0
   -6.8050  -35.6240  -18.5390 O   0  0  0  0  0  0  0  0  0  0  0  0
   -7.7550  -32.1320  -13.5120 C   0  0  2  0  0  0  0  0  0  0  0  0
   -8.4540  -33.3500  -13.2830 O   0  0  0  0  0  0  0  0  0  0  0  0
   -8.6600  -31.1230  -14.1820 C   0  0  1  0  0  0  0  0  0  0  0  0
   -9.8550  -30.8560  -13.3680 O   0  0  0  0  0  0  0  0  0  0  0  0
   -7.8270  -29.8730  -14.3990 C   0  0  2  0  0  0  0  0  0  0  0  0
   -8.6380  -28.8420  -15.0340 O   0  0  0  0  0  0  0  0  0  0  0  0
  5 18  1  0
  5  4  1  0
  5  6  1  6
 18 20  1  0
 18 19  1  6
 20 22  1  0
 20 21  1  1
  3 22  1  0
 22 23  1  6
  3  2  1  1
  4  3  1  0
  2  1  1  0
 10 11  1  1
 12 13  1  0
 10 12  1  0
  9 10  1  0
 14 10  1  0
  8  9  1  0
 14 15  1  1
 16 14  1  0
 16 17  1  6
  8 16  1  0
  8  7  1  1
  7  6  1  0
M  END
$$$$
