
     RDKit          3D

 23 24  0  0  0  0  0  0  0  0999 V2000
   -3.8350  -29.7828  -13.4391 O   0  0  0  0  0  0  0  0  0  0  0  0
   -4.7369  -29.1148  -14.2934 C   0  0  0  0  0  0  0  0  0  0  0  0
   -5.6660  -30.0113  -15.0942 C   0  0  1  0  0  0  0  0  0  0  0  0
   -5.9183  -31.1369  -14.3054 O   0  0  0  0  0  0  0  0  0  0  0  0
   -6.7934  -32.0962  -14.8095 C   0  0  2  0  0  0  0  0  0  0  0  0
   -6.3552  -32.5999  -16.1048 O   0  0  0  0  0  0  0  0  0  0  0  0
   -5.0564  -33.2184  -15.9890 C   0  0  0  0  0  0  0  0  0  0  0  0
   -5.1021  -34.6425  -16.4571 C   0  0  1  0  0  0  0  0  0  0  0  0
   -4.2459  -35.4809  -15.6735 O   0  0  0  0  0  0  0  0  0  0  0  0
   -4.7775  -36.8318  -15.6326 C   0  0  2  0  0  0  0  0  0  0  0  0
   -5.0118  -37.1831  -14.2973 O   0  0  0  0  0  0  0  0  0  0  0  0
   -3.6767  -37.8021  -16.1700 C   0  0  0  0  0  0  0  0  0  0  0  0
   -2.3626  -37.2159  -16.0468 O   0  0  0  0  0  0  0  0  0  0  0  0
   -6.0151  -36.8423  -16.4741 C   0  0  1  0  0  0  0  0  0  0  0  0
   -7.0012  -37.7580  -16.0429 O   0  0  0  0  0  0  0  0  0  0  0  0
   -6.4488  -35.3609  -16.4539 C   0  0  1  0  0  0  0  0  0  0  0  0
   -7.2907  -35.0705  -15.2619 O   0  0  0  0  0  0  0  0  0  0  0  0
   -8.1234  -31.3844  -15.1606 C   0  0  1  0  0  0  0  0  0  0  0  0
   -8.7036  -31.0336  -13.8710 O   0  0  0  0  0  0  0  0  0  0  0  0
   -8.0010  -30.1859  -16.0620 C   0  0  1  0  0  0  0  0  0  0  0  0
   -9.2826  -29.5292  -16.2606 O   0  0  0  0  0  0  0  0  0  0  0  0
   -6.9760  -29.2762  -15.3968 C   0  0  2  0  0  0  0  0  0  0  0  0
   -6.7724  -28.1177  -16.2334 O   0  0  0  0  0  0  0  0  0  0  0  0
  5 18  1  0
  5  4  1  0
  5  6  1  6
 18 20  1  0
 18 19  1  6
 20 22  1  0
 20 21  1  1
  3 22  1  0
 22 23  1  6
  3  2  1  1
  4  3  1  0
  2  1  1  0
 10 11  1  6
 12 13  1  0
 10 12  1  0
  9 10  1  0
 14 10  1  0
  8  9  1  0
 14 15  1  1
 16 14  1  0
 16 17  1  6
  8 16  1  0
  8  7  1  1
  7  6  1  0
M  END
$$$$
