
     RDKit          3D

 23 24  0  0  0  0  0  0  0  0999 V2000
   -4.5940  -29.4330  -15.9120 O   0  0  0  0  0  0  0  0  0  0  0  0
   -5.7670  -29.1520  -15.1090 C   0  0  0  0  0  0  0  0  0  0  0  0
   -6.6480  -30.3840  -14.9320 C   0  0  1  0  0  0  0  0  0  0  0  0
   -5.9350  -31.3260  -14.1180 O   0  0  0  0  0  0  0  0  0  0  0  0
   -6.6520  -32.4990  -13.7710 C   0  0  2  0  0  0  0  0  0  0  0  0
   -6.8960  -33.4220  -14.8210 O   0  0  0  0  0  0  0  0  0  0  0  0
   -5.8040  -34.1770  -15.3760 C   0  0  2  0  0  0  0  0  0  0  0  0
   -4.5150  -33.3730  -15.5710 C   0  0  0  0  0  0  0  0  0  0  0  0
   -3.5310  -34.1790  -16.2380 O   0  0  0  0  0  0  0  0  0  0  0  0
   -6.2770  -34.7500  -16.5880 O   0  0  0  0  0  0  0  0  0  0  0  0
   -6.3950  -36.1750  -16.4850 C   0  0  2  0  0  0  0  0  0  0  0  0
   -7.5860  -36.6220  -17.2500 C   0  0  0  0  0  0  0  0  0  0  0  0
   -7.4040  -36.5230  -18.6800 O   0  0  0  0  0  0  0  0  0  0  0  0
   -6.5130  -36.4510  -14.9710 C   0  0  1  0  0  0  0  0  0  0  0  0
   -6.1980  -37.8410  -14.6310 O   0  0  0  0  0  0  0  0  0  0  0  0
   -5.5180  -35.4370  -14.4740 C   0  0  2  0  0  0  0  0  0  0  0  0
   -5.4370  -35.2860  -13.0590 O   0  0  0  0  0  0  0  0  0  0  0  0
   -8.0180  -32.1690  -13.1280 C   0  0  2  0  0  0  0  0  0  0  0  0
   -8.8210  -33.3330  -12.9200 O   0  0  0  0  0  0  0  0  0  0  0  0
   -8.8080  -31.2110  -14.0150 C   0  0  1  0  0  0  0  0  0  0  0  0
  -10.0130  -30.7860  -13.2940 O   0  0  0  0  0  0  0  0  0  0  0  0
   -7.9450  -29.9650  -14.2510 C   0  0  2  0  0  0  0  0  0  0  0  0
   -8.6650  -28.9690  -15.0030 O   0  0  0  0  0  0  0  0  0  0  0  0
  5 18  1  0
  5  6  1  6
  5  4  1  0
 18 20  1  0
 18 19  1  6
 20 22  1  0
 20 21  1  1
  3 22  1  0
 22 23  1  6
  3  2  1  1
  4  3  1  0
  2  1  1  0
  7  6  1  0
  7  8  1  6
  8  9  1  0
  7 16  1  0
 10  7  1  0
 14 16  1  0
 16 17  1  1
 11 14  1  0
 14 15  1  6
 11 12  1  6
 11 10  1  0
 13 12  1  0
M  END
$$$$
