
     RDKit          3D

 23 24  0  0  0  0  0  0  0  0999 V2000
   -2.8654  -33.0510  -15.2204 O   0  0  0  0  0  0  0  0  0  0  0  0
   -3.0910  -33.5373  -13.8195 C   0  0  0  0  0  0  0  0  0  0  0  0
   -4.4703  -34.1367  -13.6332 C   0  0  1  0  0  0  0  0  0  0  0  0
   -5.3228  -33.0542  -13.2605 O   0  0  0  0  0  0  0  0  0  0  0  0
   -6.6623  -33.2128  -13.1523 C   0  0  1  0  0  0  0  0  0  0  0  0
   -7.3705  -32.0095  -13.4573 O   0  0  0  0  0  0  0  0  0  0  0  0
   -6.7076  -31.3190  -14.4916 C   0  0  1  0  0  0  0  0  0  0  0  0
   -5.5223  -31.8097  -14.7622 O   0  0  0  0  0  0  0  0  0  0  0  0
   -5.0402  -32.0107  -16.0771 C   0  0  2  0  0  0  0  0  0  0  0  0
   -4.3973  -30.6434  -16.5326 C   0  0  0  0  0  0  0  0  0  0  0  0
   -2.9895  -30.8360  -16.5083 O   0  0  0  0  0  0  0  0  0  0  0  0
   -6.1698  -32.4978  -16.9362 C   0  0  1  0  0  0  0  0  0  0  0  0
   -6.6092  -33.7662  -16.3335 O   0  0  0  0  0  0  0  0  0  0  0  0
   -7.2961  -31.5901  -16.9605 C   0  0  2  0  0  0  0  0  0  0  0  0
   -7.1272  -30.5098  -17.9403 O   0  0  0  0  0  0  0  0  0  0  0  0
   -7.6454  -31.0288  -15.6072 C   0  0  1  0  0  0  0  0  0  0  0  0
   -8.9761  -31.2115  -15.3117 O   0  0  0  0  0  0  0  0  0  0  0  0
   -7.2428  -34.3712  -13.8001 C   0  0  1  0  0  0  0  0  0  0  0  0
   -8.4684  -34.1136  -14.4534 O   0  0  0  0  0  0  0  0  0  0  0  0
   -6.4474  -35.3810  -14.4938 C   0  0  1  0  0  0  0  0  0  0  0  0
   -7.0603  -35.9674  -15.6256 O   0  0  0  0  0  0  0  0  0  0  0  0
   -5.0326  -34.8713  -14.8527 C   0  0  2  0  0  0  0  0  0  0  0  0
   -4.1856  -35.9752  -15.2370 O   0  0  0  0  0  0  0  0  0  0  0  0
  5 18  1  0
  5  6  1  1
  5  4  1  0
 18 20  1  0
 18 19  1  1
 20 22  1  0
 20 21  1  6
  3 22  1  0
 22 23  1  1
  3  2  1  6
  4  3  1  0
  2  1  1  0
  7  6  1  1
  7 16  1  0
  8  7  1  0
 14 16  1  0
 16 17  1  1
 12 14  1  0
 14 15  1  6
  9 12  1  0
 12 13  1  1
  9 10  1  6
  9  8  1  0
 11 10  1  0
M  END
$$$$
