
     RDKit          3D

 23 24  0  0  0  0  0  0  0  0999 V2000
   -4.6440  -29.3210  -16.0920 O   0  0  0  0  0  0  0  0  0  0  0  0
   -5.7880  -29.0260  -15.2800 C   0  0  0  0  0  0  0  0  0  0  0  0
   -6.6830  -30.2010  -15.0440 C   0  0  1  0  0  0  0  0  0  0  0  0
   -5.9050  -31.1420  -14.2720 O   0  0  0  0  0  0  0  0  0  0  0  0
   -6.5600  -32.4040  -14.0960 C   0  0  2  0  0  0  0  0  0  0  0  0
   -6.7950  -33.0570  -15.3300 O   0  0  0  0  0  0  0  0  0  0  0  0
   -5.5960  -33.5550  -15.8900 C   0  0  1  0  0  0  0  0  0  0  0  0
   -4.9960  -34.4990  -15.0450 O   0  0  0  0  0  0  0  0  0  0  0  0
   -5.8490  -35.6340  -14.8650 C   0  0  2  0  0  0  0  0  0  0  0  0
   -5.1480  -36.5080  -13.7930 C   0  0  0  0  0  0  0  0  0  0  0  0
   -6.1640  -37.0830  -12.9760 O   0  0  0  0  0  0  0  0  0  0  0  0
   -6.0060  -36.2930  -16.2030 C   0  0  1  0  0  0  0  0  0  0  0  0
   -6.8610  -37.4490  -16.0520 O   0  0  0  0  0  0  0  0  0  0  0  0
   -6.6960  -35.4020  -17.1670 C   0  0  2  0  0  0  0  0  0  0  0  0
   -6.7990  -35.9880  -18.5050 O   0  0  0  0  0  0  0  0  0  0  0  0
   -5.8680  -34.1200  -17.2530 C   0  0  1  0  0  0  0  0  0  0  0  0
   -6.5240  -33.1900  -18.0950 O   0  0  0  0  0  0  0  0  0  0  0  0
   -7.8730  -32.1350  -13.3820 C   0  0  2  0  0  0  0  0  0  0  0  0
   -8.5830  -33.3720  -13.2590 O   0  0  0  0  0  0  0  0  0  0  0  0
   -8.7460  -31.1460  -14.1390 C   0  0  1  0  0  0  0  0  0  0  0  0
   -9.9670  -30.8940  -13.3690 O   0  0  0  0  0  0  0  0  0  0  0  0
   -7.9720  -29.8470  -14.3340 C   0  0  2  0  0  0  0  0  0  0  0  0
   -8.7290  -28.8990  -15.0710 O   0  0  0  0  0  0  0  0  0  0  0  0
  5 18  1  0
  5  6  1  6
  5  4  1  0
 18 20  1  0
 18 19  1  6
 20 22  1  0
 20 21  1  1
  3 22  1  0
 22 23  1  6
  3  2  1  1
  4  3  1  0
  2  1  1  0
  7  6  1  1
  7 16  1  0
  8  7  1  0
 14 16  1  0
 16 17  1  6
 12 14  1  0
 14 15  1  6
  9 12  1  0
 12 13  1  1
  9 10  1  1
  9  8  1  0
 11 10  1  0
M  END
$$$$
