
     RDKit          3D

 23 24  0  0  0  0  0  0  0  0999 V2000
   -3.6186  -28.6159  -13.5843 O   0  0  0  0  0  0  0  0  0  0  0  0
   -5.0985  -28.4952  -13.5566 C   0  0  0  0  0  0  0  0  0  0  0  0
   -5.7708  -29.5886  -14.3794 C   0  0  1  0  0  0  0  0  0  0  0  0
   -5.6616  -30.8546  -13.6284 O   0  0  0  0  0  0  0  0  0  0  0  0
   -6.3640  -31.9460  -14.1876 C   0  0  2  0  0  0  0  0  0  0  0  0
   -5.8852  -32.3671  -15.4856 O   0  0  0  0  0  0  0  0  0  0  0  0
   -5.6894  -33.7701  -15.7133 C   0  0  1  0  0  0  0  0  0  0  0  0
   -4.3479  -34.1366  -15.0581 C   0  0  2  0  0  0  0  0  0  0  0  0
   -3.1304  -33.5695  -15.7966 C   0  0  0  0  0  0  0  0  0  0  0  0
   -2.8983  -34.3270  -16.9767 O   0  0  0  0  0  0  0  0  0  0  0  0
   -4.1966  -35.5675  -15.1181 O   0  0  0  0  0  0  0  0  0  0  0  0
   -5.2212  -36.3706  -14.4621 C   0  0  2  0  0  0  0  0  0  0  0  0
   -4.9052  -37.6839  -14.6947 O   0  0  0  0  0  0  0  0  0  0  0  0
   -6.5621  -36.0653  -15.0618 C   0  0  2  0  0  0  0  0  0  0  0  0
   -6.5507  -36.6357  -16.3945 O   0  0  0  0  0  0  0  0  0  0  0  0
   -6.8611  -34.6019  -15.0524 C   0  0  1  0  0  0  0  0  0  0  0  0
   -7.1628  -34.2696  -13.7275 O   0  0  0  0  0  0  0  0  0  0  0  0
   -7.8523  -31.5898  -14.4101 C   0  0  1  0  0  0  0  0  0  0  0  0
   -8.5115  -31.4460  -13.1685 O   0  0  0  0  0  0  0  0  0  0  0  0
   -8.0052  -30.2700  -15.2434 C   0  0  1  0  0  0  0  0  0  0  0  0
   -9.4386  -29.9505  -15.2592 O   0  0  0  0  0  0  0  0  0  0  0  0
   -7.2416  -29.1767  -14.5058 C   0  0  2  0  0  0  0  0  0  0  0  0
   -7.4004  -27.9790  -15.2645 O   0  0  0  0  0  0  0  0  0  0  0  0
  5 18  1  0
  5  6  1  6
  5  4  1  0
 18 20  1  0
 18 19  1  6
 20 22  1  0
 20 21  1  1
  3 22  1  0
 22 23  1  6
  3  2  1  1
  4  3  1  0
  2  1  1  0
  7  6  1  6
 12 14  1  0
 12 13  1  6
 11 12  1  0
 16 14  1  0
 14 15  1  6
  7 16  1  0
 16 17  1  1
  8  7  1  0
  8  9  1  1
  8 11  1  0
 10  9  1  0
M  END
$$$$
