
     RDKit          3D

 23 24  0  0  0  0  0  0  0  0999 V2000
   -4.7180  -29.2690  -16.1700 O   0  0  0  0  0  0  0  0  0  0  0  0
   -5.9040  -29.0460  -15.3530 C   0  0  0  0  0  0  0  0  0  0  0  0
   -6.7760  -30.2810  -15.3030 C   0  0  1  0  0  0  0  0  0  0  0  0
   -6.0130  -31.3260  -14.7030 O   0  0  0  0  0  0  0  0  0  0  0  0
   -6.6410  -32.5720  -14.5710 C   0  0  2  0  0  0  0  0  0  0  0  0
   -7.0820  -33.0920  -15.8460 O   0  0  0  0  0  0  0  0  0  0  0  0
   -6.0370  -33.3230  -16.8560 C   0  0  0  0  0  0  0  0  0  0  0  0
   -5.6430  -34.7800  -16.9210 C   0  0  1  0  0  0  0  0  0  0  0  0
   -5.1870  -35.2350  -15.6610 O   0  0  0  0  0  0  0  0  0  0  0  0
   -5.4780  -36.6330  -15.5250 C   0  0  1  0  0  0  0  0  0  0  0  0
   -4.2070  -37.2700  -15.3750 O   0  0  0  0  0  0  0  0  0  0  0  0
   -6.3310  -36.8890  -14.3030 C   0  0  0  0  0  0  0  0  0  0  0  0
   -5.6120  -36.4710  -13.1130 O   0  0  0  0  0  0  0  0  0  0  0  0
   -6.1410  -37.0200  -16.8190 C   0  0  1  0  0  0  0  0  0  0  0  0
   -7.0700  -38.0880  -16.6690 O   0  0  0  0  0  0  0  0  0  0  0  0
   -6.7530  -35.7290  -17.3130 C   0  0  2  0  0  0  0  0  0  0  0  0
   -6.9930  -35.7890  -18.7330 O   0  0  0  0  0  0  0  0  0  0  0  0
   -7.8880  -32.4070  -13.7090 C   0  0  2  0  0  0  0  0  0  0  0  0
   -8.6270  -33.6240  -13.5700 O   0  0  0  0  0  0  0  0  0  0  0  0
   -8.8520  -31.4010  -14.3440 C   0  0  1  0  0  0  0  0  0  0  0  0
  -10.0190  -31.1230  -13.5170 O   0  0  0  0  0  0  0  0  0  0  0  0
   -8.1300  -30.0600  -14.5350 C   0  0  2  0  0  0  0  0  0  0  0  0
   -8.9030  -29.0530  -15.2350 O   0  0  0  0  0  0  0  0  0  0  0  0
  5 18  1  0
  5  4  1  0
  5  6  1  6
 18 20  1  0
 18 19  1  6
 20 22  1  0
 20 21  1  1
  3 22  1  0
 22 23  1  6
  3  2  1  1
  4  3  1  0
  2  1  1  0
 10 11  1  1
 12 13  1  0
 10 12  1  0
  9 10  1  0
 14 10  1  0
  8  9  1  0
 14 15  1  1
 16 14  1  0
 16 17  1  6
  8 16  1  0
  8  7  1  1
  7  6  1  0
M  END
$$$$
