
     RDKit          3D

 23 24  0  0  0  0  0  0  0  0999 V2000
   -4.0238  -29.3162  -13.8470 O   0  0  0  0  0  0  0  0  0  0  0  0
   -5.3987  -28.9332  -13.9084 C   0  0  0  0  0  0  0  0  0  0  0  0
   -6.1693  -29.8141  -14.8963 C   0  0  1  0  0  0  0  0  0  0  0  0
   -6.4014  -31.0195  -14.1913 O   0  0  0  0  0  0  0  0  0  0  0  0
   -7.1009  -32.0288  -14.9320 C   0  0  2  0  0  0  0  0  0  0  0  0
   -6.3862  -32.3904  -16.1325 O   0  0  0  0  0  0  0  0  0  0  0  0
   -5.1708  -33.1574  -15.9926 C   0  0  0  0  0  0  0  0  0  0  0  0
   -5.2552  -34.5477  -16.5278 C   0  0  1  0  0  0  0  0  0  0  0  0
   -4.3846  -35.4484  -15.8903 O   0  0  0  0  0  0  0  0  0  0  0  0
   -4.9615  -36.7372  -15.9358 C   0  0  2  0  0  0  0  0  0  0  0  0
   -5.0978  -37.1318  -14.5499 O   0  0  0  0  0  0  0  0  0  0  0  0
   -3.9913  -37.7430  -16.5260 C   0  0  0  0  0  0  0  0  0  0  0  0
   -2.5986  -37.3001  -16.3985 O   0  0  0  0  0  0  0  0  0  0  0  0
   -6.2390  -36.6210  -16.6328 C   0  0  1  0  0  0  0  0  0  0  0  0
   -7.2072  -37.5395  -16.1926 O   0  0  0  0  0  0  0  0  0  0  0  0
   -6.6442  -35.1955  -16.4563 C   0  0  1  0  0  0  0  0  0  0  0  0
   -7.2661  -34.9643  -15.1640 O   0  0  0  0  0  0  0  0  0  0  0  0
   -8.4693  -31.5020  -15.3125 C   0  0  1  0  0  0  0  0  0  0  0  0
   -9.2669  -31.1212  -14.1972 O   0  0  0  0  0  0  0  0  0  0  0  0
   -8.3467  -30.2553  -16.1558 C   0  0  1  0  0  0  0  0  0  0  0  0
   -9.6294  -29.6361  -16.4607 O   0  0  0  0  0  0  0  0  0  0  0  0
   -7.5236  -29.1937  -15.4056 C   0  0  2  0  0  0  0  0  0  0  0  0
   -7.2180  -27.9747  -16.1802 O   0  0  0  0  0  0  0  0  0  0  0  0
  5 18  1  0
  5  4  1  0
  5  6  1  6
 18 20  1  0
 18 19  1  6
 20 22  1  0
 20 21  1  1
  3 22  1  0
 22 23  1  6
  3  2  1  1
  4  3  1  0
  2  1  1  0
 10 11  1  6
 12 13  1  0
 10 12  1  0
  9 10  1  0
 14 10  1  0
  8  9  1  0
 14 15  1  1
 16 14  1  0
 16 17  1  6
  8 16  1  0
  8  7  1  1
  7  6  1  0
M  END
$$$$
