
     RDKit          3D

 23 24  0  0  0  0  0  0  0  0999 V2000
   -5.6866  -33.4440  -17.2864 O   0  0  0  0  0  0  0  0  0  0  0  0
   -5.6881  -32.2007  -18.0952 C   0  0  0  0  0  0  0  0  0  0  0  0
   -5.7036  -30.9788  -17.2705 C   0  0  2  0  0  0  0  0  0  0  0  0
   -5.1866  -31.2420  -15.9789 O   0  0  0  0  0  0  0  0  0  0  0  0
   -6.0366  -32.0159  -15.0882 C   0  0  2  0  0  0  0  0  0  0  0  0
   -6.1282  -33.4180  -15.5116 O   0  0  0  0  0  0  0  0  0  0  0  0
   -5.2183  -34.3737  -15.0445 C   0  0  1  0  0  0  0  0  0  0  0  0
   -4.2817  -34.8593  -16.1862 C   0  0  0  0  0  0  0  0  0  0  0  0
   -4.9877  -34.7082  -17.4285 O   0  0  0  0  0  0  0  0  0  0  0  0
   -4.4174  -33.6222  -14.1231 O   0  0  0  0  0  0  0  0  0  0  0  0
   -4.6197  -34.1652  -12.8063 C   0  0  1  0  0  0  0  0  0  0  0  0
   -4.6139  -32.9945  -11.8889 C   0  0  0  0  0  0  0  0  0  0  0  0
   -4.7359  -31.7133  -12.5649 O   0  0  0  0  0  0  0  0  0  0  0  0
   -5.9774  -34.9130  -12.8723 C   0  0  1  0  0  0  0  0  0  0  0  0
   -7.1261  -34.0996  -12.6554 O   0  0  0  0  0  0  0  0  0  0  0  0
   -5.8277  -35.5467  -14.2054 C   0  0  1  0  0  0  0  0  0  0  0  0
   -7.0216  -36.0312  -14.7476 O   0  0  0  0  0  0  0  0  0  0  0  0
   -7.4178  -31.3610  -14.9854 C   0  0  2  0  0  0  0  0  0  0  0  0
   -8.3547  -32.2603  -14.3224 O   0  0  0  0  0  0  0  0  0  0  0  0
   -8.0848  -31.1344  -16.3546 C   0  0  1  0  0  0  0  0  0  0  0  0
   -9.2931  -30.4302  -16.2300 O   0  0  0  0  0  0  0  0  0  0  0  0
   -7.1260  -30.2829  -17.2313 C   0  0  2  0  0  0  0  0  0  0  0  0
   -7.6546  -29.9659  -18.5154 O   0  0  0  0  0  0  0  0  0  0  0  0
  5 18  1  0
  5  6  1  6
  5  4  1  0
 18 20  1  0
 18 19  1  1
 20 22  1  0
 20 21  1  1
  3 22  1  0
 22 23  1  6
  3  2  1  1
  4  3  1  0
  2  1  1  0
  7  6  1  0
  7  8  1  1
  8  9  1  0
  7 16  1  0
 10  7  1  0
 14 16  1  0
 16 17  1  1
 11 14  1  0
 14 15  1  6
 11 12  1  6
 11 10  1  0
 13 12  1  0
M  END
$$$$
