
     RDKit          3D

 12 12  0  0  0  0  0  0  0  0999 V2000
   -4.2830  -36.6172  -15.2794 O   0  0  0  0  0  0  0  0  0  0  0  0
   -5.6467  -36.0892  -15.0702 C   0  0  0  0  0  0  0  0  0  0  0  0
   -5.8298  -34.6937  -15.6545 C   0  0  2  0  0  0  0  0  0  0  0  0
   -4.7887  -33.8896  -15.2661 O   0  0  0  0  0  0  0  0  0  0  0  0
   -4.8366  -32.5501  -15.0355 C   0  0  2  0  0  0  0  0  0  0  0  0
   -4.8665  -32.1434  -13.6755 O   0  0  0  0  0  0  0  0  0  0  0  0
   -6.0011  -31.8743  -15.7279 C   0  0  2  0  0  0  0  0  0  0  0  0
   -6.1227  -30.5270  -15.2275 O   0  0  0  0  0  0  0  0  0  0  0  0
   -7.2812  -32.6586  -15.5873 C   0  0  2  0  0  0  0  0  0  0  0  0
   -8.1139  -31.9688  -14.6353 O   0  0  0  0  0  0  0  0  0  0  0  0
   -7.1813  -34.1216  -15.3337 C   0  0  2  0  0  0  0  0  0  0  0  0
   -7.4792  -34.3686  -13.9257 O   0  0  0  0  0  0  0  0  0  0  0  0
  5  7  1  0
  5  6  1  1
  4  5  1  0
  9  7  1  0
  7  8  1  1
 11  9  1  0
  9 10  1  6
  3 11  1  0
 11 12  1  1
  3  2  1  6
  3  4  1  0
  1  2  1  0
M  END
$$$$
