
     RDKit          3D

 23 24  0  0  0  0  0  0  0  0999 V2000
   -4.4060  -29.2490  -16.0580 O   0  0  0  0  0  0  0  0  0  0  0  0
   -5.5530  -28.9520  -15.1900 C   0  0  0  0  0  0  0  0  0  0  0  0
   -6.4310  -30.1450  -14.9940 C   0  0  1  0  0  0  0  0  0  0  0  0
   -5.6850  -31.0750  -14.1980 O   0  0  0  0  0  0  0  0  0  0  0  0
   -6.3580  -32.3420  -13.9980 C   0  0  2  0  0  0  0  0  0  0  0  0
   -6.5610  -33.0380  -15.2040 O   0  0  0  0  0  0  0  0  0  0  0  0
   -5.3590  -33.5300  -15.7880 C   0  0  1  0  0  0  0  0  0  0  0  0
   -4.8300  -34.5180  -14.9390 O   0  0  0  0  0  0  0  0  0  0  0  0
   -5.6910  -35.6550  -14.7480 C   0  0  2  0  0  0  0  0  0  0  0  0
   -5.0550  -36.7790  -13.8590 C   0  0  0  0  0  0  0  0  0  0  0  0
   -5.0440  -36.1800  -12.6110 O   0  0  0  0  0  0  0  0  0  0  0  0
   -5.9340  -36.2640  -16.0960 C   0  0  1  0  0  0  0  0  0  0  0  0
   -6.8750  -37.2980  -15.9320 O   0  0  0  0  0  0  0  0  0  0  0  0
   -6.5920  -35.2900  -17.0450 C   0  0  2  0  0  0  0  0  0  0  0  0
   -6.7230  -35.8910  -18.3570 O   0  0  0  0  0  0  0  0  0  0  0  0
   -5.7160  -34.0560  -17.1410 C   0  0  1  0  0  0  0  0  0  0  0  0
   -6.3450  -33.0720  -17.9440 O   0  0  0  0  0  0  0  0  0  0  0  0
   -7.6940  -32.0830  -13.2660 C   0  0  2  0  0  0  0  0  0  0  0  0
   -8.4350  -33.3250  -13.1380 O   0  0  0  0  0  0  0  0  0  0  0  0
   -8.5260  -31.0500  -14.0750 C   0  0  1  0  0  0  0  0  0  0  0  0
   -9.7480  -30.7700  -13.3100 O   0  0  0  0  0  0  0  0  0  0  0  0
   -7.7360  -29.7670  -14.2710 C   0  0  2  0  0  0  0  0  0  0  0  0
   -8.5090  -28.8210  -15.0150 O   0  0  0  0  0  0  0  0  0  0  0  0
  5 18  1  0
  5  6  1  6
  5  4  1  0
 18 20  1  0
 18 19  1  6
 20 22  1  0
 20 21  1  1
  3 22  1  0
 22 23  1  6
  3  2  1  1
  4  3  1  0
  2  1  1  0
  7  6  1  1
  7 16  1  0
  8  7  1  0
 14 16  1  0
 16 17  1  6
 12 14  1  0
 14 15  1  6
  9 12  1  0
 12 13  1  1
  9 10  1  1
  9  8  1  0
 11 10  1  0
M  END
$$$$
