
     RDKit          3D

 23 24  0  0  0  0  0  0  0  0999 V2000
   -3.6068  -29.9963  -14.5978 O   0  0  0  0  0  0  0  0  0  0  0  0
   -4.9471  -29.5929  -14.4746 C   0  0  0  0  0  0  0  0  0  0  0  0
   -5.9571  -30.4415  -15.1657 C   0  0  1  0  0  0  0  0  0  0  0  0
   -5.8692  -31.7274  -14.4661 O   0  0  0  0  0  0  0  0  0  0  0  0
   -6.8088  -32.7554  -14.8482 C   0  0  2  0  0  0  0  0  0  0  0  0
   -6.5406  -33.2511  -16.1416 O   0  0  0  0  0  0  0  0  0  0  0  0
   -6.1798  -34.6586  -16.2331 C   0  0  1  0  0  0  0  0  0  0  0  0
   -4.8110  -34.6458  -15.7152 C   0  0  2  0  0  0  0  0  0  0  0  0
   -3.9585  -34.3676  -16.9556 C   0  0  0  0  0  0  0  0  0  0  0  0
   -2.6462  -34.4563  -16.6838 O   0  0  0  0  0  0  0  0  0  0  0  0
   -4.3293  -35.9550  -15.3398 O   0  0  0  0  0  0  0  0  0  0  0  0
   -5.2515  -36.6377  -14.4502 C   0  0  2  0  0  0  0  0  0  0  0  0
   -4.6555  -37.8528  -13.9641 O   0  0  0  0  0  0  0  0  0  0  0  0
   -6.5452  -36.8149  -15.1754 C   0  0  2  0  0  0  0  0  0  0  0  0
   -6.2962  -37.5330  -16.4320 O   0  0  0  0  0  0  0  0  0  0  0  0
   -7.1646  -35.4909  -15.4312 C   0  0  1  0  0  0  0  0  0  0  0  0
   -7.3920  -34.8545  -14.1473 O   0  0  0  0  0  0  0  0  0  0  0  0
   -8.2588  -32.1785  -14.8382 C   0  0  1  0  0  0  0  0  0  0  0  0
   -8.7231  -31.8971  -13.5302 O   0  0  0  0  0  0  0  0  0  0  0  0
   -8.3133  -30.9002  -15.5792 C   0  0  1  0  0  0  0  0  0  0  0  0
   -9.7080  -30.3929  -15.4564 O   0  0  0  0  0  0  0  0  0  0  0  0
   -7.3511  -29.8487  -15.0761 C   0  0  2  0  0  0  0  0  0  0  0  0
   -7.4360  -28.6125  -15.7198 O   0  0  0  0  0  0  0  0  0  0  0  0
  5 18  1  0
  5  6  1  6
  5  4  1  0
 18 20  1  0
 18 19  1  6
 20 22  1  0
 20 21  1  1
  3 22  1  0
 22 23  1  6
  3  2  1  1
  4  3  1  0
  2  1  1  0
  7  6  1  6
 12 14  1  0
 12 13  1  6
 11 12  1  0
 16 14  1  0
 14 15  1  6
  7 16  1  0
 16 17  1  1
  8  7  1  0
  8  9  1  1
  8 11  1  0
 10  9  1  0
M  END
$$$$
