
     RDKit          3D

 23 24  0  0  0  0  0  0  0  0999 V2000
   -4.5940  -29.3670  -15.9020 O   0  0  0  0  0  0  0  0  0  0  0  0
   -5.7230  -29.1450  -15.0150 C   0  0  0  0  0  0  0  0  0  0  0  0
   -6.6290  -30.3510  -14.9440 C   0  0  1  0  0  0  0  0  0  0  0  0
   -5.9080  -31.3110  -14.1670 O   0  0  0  0  0  0  0  0  0  0  0  0
   -6.5930  -32.5360  -13.8220 C   0  0  2  0  0  0  0  0  0  0  0  0
   -6.8250  -33.3560  -14.9550 O   0  0  0  0  0  0  0  0  0  0  0  0
   -5.7940  -34.3280  -15.2400 C   0  0  2  0  0  0  0  0  0  0  0  0
   -5.7190  -34.2860  -16.7200 C   0  0  1  0  0  0  0  0  0  0  0  0
   -4.7150  -33.1340  -16.9960 C   0  0  0  0  0  0  0  0  0  0  0  0
   -4.6580  -32.8980  -18.3310 O   0  0  0  0  0  0  0  0  0  0  0  0
   -5.0540  -35.4220  -17.2990 O   0  0  0  0  0  0  0  0  0  0  0  0
   -5.5170  -36.6980  -16.8200 C   0  0  2  0  0  0  0  0  0  0  0  0
   -6.8230  -36.9340  -17.2330 O   0  0  0  0  0  0  0  0  0  0  0  0
   -5.3080  -36.7350  -15.3100 C   0  0  2  0  0  0  0  0  0  0  0  0
   -5.6940  -38.0580  -14.8120 O   0  0  0  0  0  0  0  0  0  0  0  0
   -6.1420  -35.6730  -14.6490 C   0  0  1  0  0  0  0  0  0  0  0  0
   -5.7580  -35.6540  -13.2770 O   0  0  0  0  0  0  0  0  0  0  0  0
   -7.9670  -32.2300  -13.1810 C   0  0  2  0  0  0  0  0  0  0  0  0
   -8.7730  -33.3950  -13.0790 O   0  0  0  0  0  0  0  0  0  0  0  0
   -8.7280  -31.2690  -14.0340 C   0  0  1  0  0  0  0  0  0  0  0  0
   -9.9970  -30.9330  -13.3440 O   0  0  0  0  0  0  0  0  0  0  0  0
   -7.9440  -29.9650  -14.2550 C   0  0  2  0  0  0  0  0  0  0  0  0
   -8.6550  -29.0140  -15.0250 O   0  0  0  0  0  0  0  0  0  0  0  0
  5 18  1  0
  5  6  1  6
  5  4  1  0
 18 20  1  0
 18 19  1  6
 20 22  1  0
 20 21  1  1
  3 22  1  0
 22 23  1  6
  3  2  1  1
  4  3  1  0
  2  1  1  0
  7  6  1  6
 12 14  1  0
 12 13  1  1
 11 12  1  0
 16 14  1  0
 14 15  1  1
  7 16  1  0
 16 17  1  1
  8  7  1  0
  8  9  1  1
  8 11  1  0
 10  9  1  0
M  END
$$$$
