
     RDKit          3D

 23 24  0  0  0  0  0  0  0  0999 V2000
   -3.6953  -30.6633  -15.7127 O   0  0  0  0  0  0  0  0  0  0  0  0
   -5.0366  -30.0230  -15.8074 C   0  0  0  0  0  0  0  0  0  0  0  0
   -5.8712  -30.2443  -14.4881 C   0  0  2  0  0  0  0  0  0  0  0  0
   -5.6904  -31.5483  -13.9572 O   0  0  0  0  0  0  0  0  0  0  0  0
   -6.1789  -32.5937  -14.7773 C   0  0  2  0  0  0  0  0  0  0  0  0
   -5.3985  -32.8302  -16.0448 O   0  0  0  0  0  0  0  0  0  0  0  0
   -4.9228  -34.1598  -16.2359 C   0  0  1  0  0  0  0  0  0  0  0  0
   -4.0658  -34.1684  -17.4999 C   0  0  0  0  0  0  0  0  0  0  0  0
   -4.1886  -32.9429  -18.1097 O   0  0  0  0  0  0  0  0  0  0  0  0
   -4.0979  -34.4112  -15.0521 O   0  0  0  0  0  0  0  0  0  0  0  0
   -4.7612  -35.5063  -14.2842 C   0  0  2  0  0  0  0  0  0  0  0  0
   -4.0347  -36.7603  -14.4966 C   0  0  0  0  0  0  0  0  0  0  0  0
   -2.6136  -36.6075  -14.8375 O   0  0  0  0  0  0  0  0  0  0  0  0
   -6.2174  -35.5253  -14.7025 C   0  0  1  0  0  0  0  0  0  0  0  0
   -7.0221  -34.6164  -13.9752 O   0  0  0  0  0  0  0  0  0  0  0  0
   -6.0264  -35.2637  -16.1933 C   0  0  2  0  0  0  0  0  0  0  0  0
   -5.8375  -36.4862  -16.9739 O   0  0  0  0  0  0  0  0  0  0  0  0
   -7.6178  -32.3697  -15.1518 C   0  0  1  0  0  0  0  0  0  0  0  0
   -8.4236  -32.4169  -13.9702 O   0  0  0  0  0  0  0  0  0  0  0  0
   -7.7954  -30.9870  -15.7426 C   0  0  1  0  0  0  0  0  0  0  0  0
   -9.2288  -30.7742  -16.1408 O   0  0  0  0  0  0  0  0  0  0  0  0
   -7.2887  -29.9110  -14.8557 C   0  0  2  0  0  0  0  0  0  0  0  0
   -7.4274  -28.6472  -15.4505 O   0  0  0  0  0  0  0  0  0  0  0  0
  5 18  1  0
  5  6  1  6
  5  4  1  0
 18 20  1  0
 18 19  1  6
 20 22  1  0
 20 21  1  1
  3 22  1  0
 22 23  1  6
  3  2  1  1
  4  3  1  0
  2  1  1  0
  7  6  1  0
  7  8  1  1
  8  9  1  0
  7 16  1  0
 10  7  1  0
 14 16  1  0
 16 17  1  6
 11 14  1  0
 14 15  1  1
 11 12  1  6
 11 10  1  0
 13 12  1  0
M  END
$$$$
