
     RDKit          3D

 23 24  0  0  0  0  0  0  0  0999 V2000
   -4.3010  -29.2940  -15.7730 O   0  0  0  0  0  0  0  0  0  0  0  0
   -5.4840  -28.9910  -14.9700 C   0  0  0  0  0  0  0  0  0  0  0  0
   -6.3590  -30.2370  -14.7170 C   0  0  1  0  0  0  0  0  0  0  0  0
   -5.6630  -31.2210  -13.9260 O   0  0  0  0  0  0  0  0  0  0  0  0
   -6.4040  -32.3690  -13.6010 C   0  0  2  0  0  0  0  0  0  0  0  0
   -6.6240  -33.3090  -14.6900 O   0  0  0  0  0  0  0  0  0  0  0  0
   -5.4910  -34.0760  -15.1320 C   0  0  2  0  0  0  0  0  0  0  0  0
   -4.2760  -33.1550  -15.3840 C   0  0  0  0  0  0  0  0  0  0  0  0
   -3.2560  -33.9510  -15.9510 O   0  0  0  0  0  0  0  0  0  0  0  0
   -5.9310  -34.6630  -16.3700 O   0  0  0  0  0  0  0  0  0  0  0  0
   -6.1560  -36.0660  -16.2070 C   0  0  2  0  0  0  0  0  0  0  0  0
   -7.3520  -36.4920  -16.9780 C   0  0  0  0  0  0  0  0  0  0  0  0
   -7.2100  -36.2090  -18.3890 O   0  0  0  0  0  0  0  0  0  0  0  0
   -6.2530  -36.3320  -14.7070 C   0  0  1  0  0  0  0  0  0  0  0  0
   -6.0490  -37.7160  -14.3740 O   0  0  0  0  0  0  0  0  0  0  0  0
   -5.1780  -35.3230  -14.2600 C   0  0  2  0  0  0  0  0  0  0  0  0
   -5.1340  -35.1740  -12.8210 O   0  0  0  0  0  0  0  0  0  0  0  0
   -7.7340  -32.0170  -12.9660 C   0  0  2  0  0  0  0  0  0  0  0  0
   -8.5300  -33.1760  -12.8170 O   0  0  0  0  0  0  0  0  0  0  0  0
   -8.5240  -31.0270  -13.8160 C   0  0  1  0  0  0  0  0  0  0  0  0
   -9.7860  -30.7120  -13.1720 O   0  0  0  0  0  0  0  0  0  0  0  0
   -7.6590  -29.7860  -14.0690 C   0  0  2  0  0  0  0  0  0  0  0  0
   -8.3930  -28.8820  -14.8850 O   0  0  0  0  0  0  0  0  0  0  0  0
  5 18  1  0
  5  6  1  6
  5  4  1  0
 18 20  1  0
 18 19  1  6
 20 22  1  0
 20 21  1  1
  3 22  1  0
 22 23  1  6
  3  2  1  1
  4  3  1  0
  2  1  1  0
  7  6  1  0
  7  8  1  6
  8  9  1  0
  7 16  1  0
 10  7  1  0
 14 16  1  0
 16 17  1  1
 11 14  1  0
 14 15  1  6
 11 12  1  6
 11 10  1  0
 13 12  1  0
M  END
$$$$
