
     RDKit          3D

 12 12  0  0  0  0  0  0  0  0999 V2000
   -4.5460  -29.2300  -16.0740 O   0  0  0  0  0  0  0  0  0  0  0  0
   -5.7180  -28.9890  -15.2860 C   0  0  0  0  0  0  0  0  0  0  0  0
   -6.6090  -30.1960  -15.1600 C   0  0  1  0  0  0  0  0  0  0  0  0
   -5.8720  -31.2360  -14.4960 O   0  0  0  0  0  0  0  0  0  0  0  0
   -6.5730  -32.4350  -14.2450 C   0  0  2  0  0  0  0  0  0  0  0  0
   -6.9180  -33.0500  -15.4890 O   0  0  0  0  0  0  0  0  0  0  0  0
   -7.9030  -32.2400  -13.5020 C   0  0  2  0  0  0  0  0  0  0  0  0
   -8.6530  -33.4200  -13.4030 O   0  0  0  0  0  0  0  0  0  0  0  0
   -8.7460  -31.2490  -14.2610 C   0  0  1  0  0  0  0  0  0  0  0  0
   -9.9600  -30.9250  -13.5010 O   0  0  0  0  0  0  0  0  0  0  0  0
   -7.9350  -29.9620  -14.4390 C   0  0  2  0  0  0  0  0  0  0  0  0
   -8.7300  -28.9860  -15.1620 O   0  0  0  0  0  0  0  0  0  0  0  0
  5  7  1  0
  5  6  1  6
  4  5  1  0
  9  7  1  0
  7  8  1  6
 11  9  1  0
  9 10  1  1
  3 11  1  0
 11 12  1  6
  3  2  1  1
  3  4  1  0
  1  2  1  0
M  END
$$$$
