
     RDKit          3D

 30 34  0  0  0  0  0  0  0  0999 V2000
  -60.6100   29.8570  -23.7050 O   0  0  0  0  0  0  0  0  0  0  0  0
  -61.7780   29.5960  -24.1070 C   0  0  0  0  0  0  0  0  0  0  0  0
  -62.9350   30.3590  -23.5260 C   0  0  0  0  0  0  0  0  0  0  0  0
  -62.9970   30.6010  -22.1230 C   0  0  0  0  0  0  0  0  0  0  0  0
  -64.1190   31.1970  -21.5050 C   0  0  0  0  0  0  0  0  0  0  0  0
  -65.1840   31.6190  -22.3050 C   0  0  0  0  0  0  0  0  0  0  0  0
  -65.1480   31.4080  -23.6980 C   0  0  0  0  0  0  0  0  0  0  0  0
  -64.0240   30.7920  -24.3310 C   0  0  0  0  0  0  0  0  0  0  0  0
  -66.3800   31.9110  -24.4240 C   0  0  0  0  0  0  0  0  0  0  0  0
  -67.4780   32.5400  -23.0890 S   0  0  2  0  0  0  0  0  0  0  0  0
  -68.5950   31.5660  -22.9510 O   0  0  0  0  0  0  0  0  0  0  0  0
  -67.7120   33.9870  -23.1380 O   0  0  0  0  0  0  0  0  0  0  0  0
  -66.3370   32.2330  -21.8800 N   0  0  0  0  0  0  0  0  0  0  0  0
  -61.9940   28.6660  -25.0960 N   0  0  0  0  0  0  0  0  0  0  0  0
  -63.2690   28.0420  -25.5510 C   0  0  0  0  0  0  0  0  0  0  0  0
  -63.5340   28.3650  -27.0240 C   0  0  0  0  0  0  0  0  0  0  0  0
  -62.2930   28.1450  -27.8500 C   0  0  0  0  0  0  0  0  0  0  0  0
  -62.4840   27.9630  -29.2060 N   0  0  0  0  0  0  0  0  0  0  0  0
  -61.3290   27.7740  -29.9790 C   0  0  0  0  0  0  0  0  0  0  0  0
  -61.5660   27.5300  -31.4200 C   0  0  0  0  0  0  0  0  0  0  0  0
  -62.5910   26.5480  -31.6780 C   0  0  0  0  0  0  0  0  0  0  0  0
  -62.9320   26.1670  -32.9850 C   0  0  0  0  0  0  0  0  0  0  0  0
  -62.1990   26.8000  -34.0240 C   0  0  0  0  0  0  0  0  0  0  0  0
  -61.1720   27.7690  -33.7740 C   0  0  0  0  0  0  0  0  0  0  0  0
  -60.8140   28.1350  -32.4560 C   0  0  0  0  0  0  0  0  0  0  0  0
  -60.0930   27.7340  -29.5150 N   0  0  0  0  0  0  0  0  0  0  0  0
  -59.8520   27.8710  -28.1360 C   0  0  0  0  0  0  0  0  0  0  0  0
  -58.7190   27.8430  -27.6120 O   0  0  0  0  0  0  0  0  0  0  0  0
  -61.0450   28.1010  -27.3020 C   0  0  0  0  0  0  0  0  0  0  0  0
  -60.7830   28.2660  -25.8300 C   0  0  0  0  0  0  0  0  0  0  0  0
 10 11  2  0
 10 12  2  0
 13 10  1  0
 10  9  1  6
 27 28  2  0
  2  1  2  0
  6 13  1  0
  5  6  2  0
  7  6  1  0
  4  5  1  0
  7  9  1  0
  8  7  2  0
  3  8  1  0
  3  4  2  0
  2  3  1  0
 14  2  1  0
 14 15  1  0
 30 14  1  0
 15 16  1  0
 16 17  1  0
 29 30  1  0
 29 27  1  0
 29 17  2  0
 27 26  1  0
 26 19  2  0
 19 18  1  0
 19 20  1  0
 18 17  1  0
 20 21  2  0
 20 25  1  0
 21 22  1  0
 22 23  2  0
 25 24  2  0
 24 23  1  0
M  END
$$$$
