
     RDKit          3D

 30 32  0  0  0  0  0  0  0  0999 V2000
  -14.2246   23.8546   -9.4064 N   0  0  0  0  0  0  0  0  0  0  0  0
  -14.2382   22.5548   -8.8015 C   0  0  0  0  0  0  0  0  0  0  0  0
  -14.2672   21.4862   -9.6211 N   0  0  0  0  0  0  0  0  0  0  0  0
  -14.2464   20.2052   -9.0442 C   0  0  0  0  0  0  0  0  0  0  0  0
  -14.1972   19.9119   -7.7440 N   0  0  0  0  0  0  0  0  0  0  0  0
  -14.0728   20.9880   -6.9110 C   0  0  0  0  0  0  0  0  0  0  0  0
  -14.1021   22.3314   -7.3726 C   0  0  0  0  0  0  0  0  0  0  0  0
  -13.9157   23.1987   -6.2984 N   0  0  0  0  0  0  0  0  0  0  0  0
  -13.6235   22.4044   -5.2050 C   0  0  0  0  0  0  0  0  0  0  0  0
  -14.0019   21.0509   -5.5025 N   0  0  0  0  0  0  0  0  0  0  0  0
  -14.6820   20.1891   -4.3867 C   0  0  2  0  0  0  0  0  0  0  0  0
  -15.7873   19.1873   -4.9225 C   0  0  0  0  0  0  0  0  0  0  0  0
  -17.1059   19.5917   -4.3152 C   0  0  1  0  0  0  0  0  0  0  0  0
  -17.4520   18.8833   -3.1434 O   0  0  0  0  0  0  0  0  0  0  0  0
  -16.8107   21.0489   -3.8787 C   0  0  2  0  0  0  0  0  0  0  0  0
  -17.1012   21.9883   -5.1602 C   0  0  0  0  0  0  0  0  0  0  0  0
  -17.9081   23.0383   -4.7898 O   0  0  0  0  0  0  0  0  0  0  0  0
  -18.0530   24.5178   -5.9392 P   0  0  1  0  0  0  0  0  0  0  0  0
  -16.8981   24.1590   -6.8051 O   0  0  0  0  0  0  0  0  0  0  0  0
  -19.4151   24.3073   -6.5563 O   0  0  0  0  0  0  0  0  0  0  0  0
  -17.8842   25.7435   -4.9823 O   0  0  0  0  0  0  0  0  0  0  0  0
  -17.2613   27.4565   -5.4234 P   0  0  2  0  0  0  0  0  0  0  0  0
  -16.3034   27.0324   -6.5314 O   0  0  0  0  0  0  0  0  0  0  0  0
  -16.5283   27.8938   -4.1838 O   0  0  0  0  0  0  0  0  0  0  0  0
  -18.4279   28.4006   -5.8949 O   0  0  0  0  0  0  0  0  0  0  0  0
  -19.4043   29.4752   -4.8923 P   0  0  2  0  0  0  0  0  0  0  0  0
  -20.1946   30.3336   -5.8167 O   0  0  0  0  0  0  0  0  0  0  0  0
  -18.4152   30.3179   -4.0473 O   0  0  0  0  0  0  0  0  0  0  0  0
  -20.3366   28.6784   -3.9476 O   0  0  0  0  0  0  0  0  0  0  0  0
  -15.3814   21.0068   -3.5305 O   0  0  0  0  0  0  0  0  0  0  0  0
 26 28  1  1
 26 27  2  0
 26 29  1  0
 25 26  1  0
 22 23  2  0
 22 24  1  1
 22 25  1  0
 21 22  1  0
 18 19  2  0
 18 20  1  6
 18 21  1  0
 18 17  1  0
 17 16  1  0
 15 16  1  1
 15 30  1  0
 15 13  1  0
 30 11  1  0
 13 14  1  6
 13 12  1  0
 12 11  1  0
 11 10  1  1
 10  9  4  0
 10  6  4  0
  9  8  4  0
  8  7  4  0
  7  2  4  0
  7  6  4  0
  2  1  1  0
  2  3  4  0
  3  4  4  0
  4  5  4  0
  5  6  4  0
M  END
$$$$
