
     RDKit          3D

 34 37  0  0  0  0  0  0  0  0999 V2000
  -14.1789  -41.0504   -5.6488 H   0  0  0  0  0  0  0  0  0  0  0  0
  -14.7463  -39.9940   -5.6262 N   0  0  0  0  0  0  0  0  0  0  0  0
  -15.5686  -40.0337   -6.6939 C   0  0  0  0  0  0  0  0  0  0  0  0
  -16.3264  -39.0210   -6.8899 N   0  0  0  0  0  0  0  0  0  0  0  0
  -17.0354  -38.6258   -8.1042 C   0  0  2  0  0  0  0  0  0  0  0  0
  -16.5568  -37.1717   -8.2512 C   0  0  0  0  0  0  0  0  0  0  0  0
  -18.5302  -38.7943   -7.9020 C   0  0  0  0  0  0  0  0  0  0  0  0
  -19.0486  -38.8728   -6.6007 C   0  0  0  0  0  0  0  0  0  0  0  0
  -20.3961  -39.0860   -6.3109 C   0  0  0  0  0  0  0  0  0  0  0  0
  -20.6723  -39.9367   -5.2856 N   0  0  0  0  0  0  0  0  0  0  0  0
  -20.9324  -41.2350   -5.3446 C   0  0  0  0  0  0  0  0  0  0  0  0
  -21.3154  -41.8413   -6.3646 O   0  0  0  0  0  0  0  0  0  0  0  0
  -20.3461  -42.1120   -4.2228 C   0  0  0  0  0  0  0  0  0  0  0  0
  -20.4498  -43.4644   -4.3118 C   0  0  0  0  0  0  0  0  0  0  0  0
  -20.3988  -44.2005   -3.1873 N   0  0  0  0  0  0  0  0  0  0  0  0
  -20.2926  -43.5972   -1.9766 C   0  0  0  0  0  0  0  0  0  0  0  0
  -20.8312  -44.1767   -0.8353 O   0  0  0  0  0  0  0  0  0  0  0  0
  -19.9883  -44.6816    0.2173 C   0  0  0  0  0  0  0  0  0  0  0  0
  -20.6058  -44.5026    1.3992 F   0  0  0  0  0  0  0  0  0  0  0  0
  -19.9894  -42.2048   -1.8965 C   0  0  0  0  0  0  0  0  0  0  0  0
  -20.0727  -41.5233   -3.0316 N   0  0  0  0  0  0  0  0  0  0  0  0
  -21.3463  -38.6979   -7.3148 C   0  0  0  0  0  0  0  0  0  0  0  0
  -20.9529  -38.6625   -8.6444 C   0  0  0  0  0  0  0  0  0  0  0  0
  -19.5822  -38.5579   -8.9526 C   0  0  0  0  0  0  0  0  0  0  0  0
  -19.2055  -38.1824  -10.1819 F   0  0  0  0  0  0  0  0  0  0  0  0
  -16.6397  -39.3983   -9.4136 C   0  0  1  0  0  0  0  0  0  0  0  0
  -15.3721  -38.8185  -10.1116 C   0  0  0  0  0  0  0  0  0  0  0  0
  -14.6136  -37.9139   -9.4122 C   0  0  0  0  0  0  0  0  0  0  0  0
  -14.1439  -36.7125  -10.0490 C   0  0  0  0  0  0  0  0  0  0  0  0
  -14.2691  -36.6142  -11.4349 C   0  0  0  0  0  0  0  0  0  0  0  0
  -14.8345  -37.6355  -12.1869 C   0  0  0  0  0  0  0  0  0  0  0  0
  -15.3257  -38.8348  -11.5379 C   0  0  0  0  0  0  0  0  0  0  0  0
  -16.4580  -40.9131   -9.1950 C   0  0  0  0  0  0  0  0  0  0  0  0
  -15.3861  -41.3038   -7.8028 S   0  0  0  0  0  0  0  0  0  0  0  0
 22 23  4  0
  9 22  4  0
 23 24  4  0
  7 24  4  0
 24 25  1  0
  8  7  4  0
  7  5  1  0
  9  8  4  0
  5 26  1  0
  5  6  1  6
  5  4  1  0
 26 33  1  0
 26 27  1  6
  3  2  2  0
 11 10  1  0
 10  9  1  0
 16 17  1  0
 17 18  1  0
 33 34  1  0
 21 13  4  0
 20 21  4  0
  4  3  1  0
  3 34  1  0
 13 11  1  0
 11 12  2  0
 13 14  4  0
 20 16  4  0
 16 15  4  0
 14 15  4  0
 18 19  1  0
 27 28  4  0
 27 32  4  0
 28 29  4  0
 29 30  4  0
 30 31  4  0
 31 32  4  0
  2  1  1  0
M  END
$$$$
