
     RDKit          3D

 26 28  0  0  0  0  0  0  0  0999 V2000
   15.0222   40.7832   -5.0709 H   0  0  0  0  0  0  0  0  0  0  0  0
   14.9519   39.6247   -5.4813 N   0  0  0  0  0  0  0  0  0  0  0  0
   15.4762   39.6111   -6.7005 C   0  0  0  0  0  0  0  0  0  0  0  0
   16.1307   38.5710   -7.0836 N   0  0  0  0  0  0  0  0  0  0  0  0
   16.9836   38.4378   -8.2812 C   0  0  2  0  0  0  0  0  0  0  0  0
   16.7011   37.0324   -8.7624 C   0  0  0  0  0  0  0  0  0  0  0  0
   18.4506   38.6553   -7.9579 C   0  0  0  0  0  0  0  0  0  0  0  0
   18.8630   39.0179   -6.7210 C   0  0  0  0  0  0  0  0  0  0  0  0
   20.2338   39.3121   -6.4366 C   0  0  0  0  0  0  0  0  0  0  0  0
   20.4195   40.1754   -5.3691 N   0  0  0  0  0  0  0  0  0  0  0  0
   21.4318   40.9995   -5.1022 C   0  0  0  0  0  0  0  0  0  0  0  0
   22.6216   40.7177   -5.5106 O   0  0  0  0  0  0  0  0  0  0  0  0
   21.3125   41.8098   -3.8984 C   0  0  0  0  0  0  0  0  0  0  0  0
   22.3405   42.7582   -3.5608 C   0  0  0  0  0  0  0  0  0  0  0  0
   22.4204   43.1832   -2.2179 C   0  0  0  0  0  0  0  0  0  0  0  0
   21.4190   42.8062   -1.3163 C   0  0  0  0  0  0  0  0  0  0  0  0
   21.5558   43.1898    0.4202 Cl  0  0  0  0  0  0  0  0  0  0  0  0
   20.3874   41.9673   -1.7122 C   0  0  0  0  0  0  0  0  0  0  0  0
   20.3388   41.5572   -3.0430 N   0  0  0  0  0  0  0  0  0  0  0  0
   21.2094   38.9278   -7.3168 C   0  0  0  0  0  0  0  0  0  0  0  0
   20.8621   38.5489   -8.6108 C   0  0  0  0  0  0  0  0  0  0  0  0
   19.5306   38.3391   -8.9501 C   0  0  0  0  0  0  0  0  0  0  0  0
   19.2873   37.6628  -10.1010 F   0  0  0  0  0  0  0  0  0  0  0  0
   16.5668   39.4172   -9.4351 C   0  0  0  0  0  0  0  0  0  0  0  0
   16.5872   40.8782   -9.0043 C   0  0  0  0  0  0  0  0  0  0  0  0
   15.5855   41.0727   -7.5736 S   0  0  0  0  0  0  0  0  0  0  0  0
 20 21  4  0
  9 20  4  0
 21 22  4  0
  7 22  4  0
 22 23  1  0
  8  7  4  0
  7  5  1  0
  9  8  4  0
  5  6  1  6
  5 24  1  0
  5  4  1  0
  3  2  2  0
 11 10  1  0
 10  9  1  0
  3 26  1  0
  4  3  1  0
 13 19  4  0
 19 18  4  0
 24 25  1  0
 25 26  1  0
 11 13  1  0
 11 12  2  0
 13 14  4  0
 18 16  4  0
 16 15  4  0
 16 17  1  0
 15 14  4  0
  2  1  1  0
M  END
$$$$
