
     RDKit          3D

 35 38  0  0  0  0  0  0  0  0999 V2000
  -14.3378  -40.3438   -5.6999 H   0  0  0  0  0  0  0  0  0  0  0  0
  -14.8290  -39.5110   -6.0250 N   0  0  0  0  0  0  0  0  0  0  0  0
  -15.7020  -39.5900   -7.1670 C   0  0  0  0  0  0  0  0  0  0  0  0
  -16.2890  -38.5620   -7.5640 N   0  0  0  0  0  0  0  0  0  0  0  0
  -17.1890  -38.4280   -8.7220 C   0  0  2  0  0  0  0  0  0  0  0  0
  -16.9080  -36.9920   -9.1870 C   0  0  0  0  0  0  0  0  0  0  0  0
  -18.6690  -38.6470   -8.3010 C   0  0  0  0  0  0  0  0  0  0  0  0
  -18.9720  -39.4390   -7.1800 C   0  0  0  0  0  0  0  0  0  0  0  0
  -20.2780  -39.6780   -6.7590 C   0  0  0  0  0  0  0  0  0  0  0  0
  -20.3970  -40.4950   -5.5420 N   0  0  0  0  0  0  0  0  0  0  0  0
  -21.6250  -40.9520   -4.8780 C   0  0  0  0  0  0  0  0  0  0  0  0
  -22.7190  -40.7330   -5.2530 O   0  0  0  0  0  0  0  0  0  0  0  0
  -21.3990  -41.7460   -3.5700 C   0  0  0  0  0  0  0  0  0  0  0  0
  -22.3890  -42.5550   -3.0130 C   0  0  0  0  0  0  0  0  0  0  0  0
  -22.1220  -43.1900   -1.8700 N   0  0  0  0  0  0  0  0  0  0  0  0
  -20.9410  -43.0690   -1.2570 C   0  0  0  0  0  0  0  0  0  0  0  0
  -20.6230  -43.7290   -0.0480 O   0  0  0  0  0  0  0  0  0  0  0  0
  -21.7180  -44.3630    0.5950 C   0  0  0  0  0  0  0  0  0  0  0  0
  -22.6390  -43.4420    1.0290 F   0  0  0  0  0  0  0  0  0  0  0  0
  -19.9700  -42.2660   -1.8170 C   0  0  0  0  0  0  0  0  0  0  0  0
  -20.2320  -41.6050   -2.9460 N   0  0  0  0  0  0  0  0  0  0  0  0
  -21.3340  -39.0900   -7.4290 C   0  0  0  0  0  0  0  0  0  0  0  0
  -21.0590  -38.2930   -8.5510 C   0  0  0  0  0  0  0  0  0  0  0  0
  -19.7520  -38.0680   -8.9810 C   0  0  0  0  0  0  0  0  0  0  0  0
  -19.5780  -37.2900  -10.0710 F   0  0  0  0  0  0  0  0  0  0  0  0
  -16.6970  -39.3450   -9.8780 C   0  0  2  0  0  0  0  0  0  0  0  0
  -15.1720  -39.2700  -10.3360 C   0  0  0  0  0  0  0  0  0  0  0  0
  -14.5800  -40.1910  -11.4130 C   0  0  0  0  0  0  0  0  0  0  0  0
  -15.6910  -40.0650  -12.7840 S   0  0  1  0  0  0  0  0  0  0  0  0
  -15.6020  -38.6910  -13.2980 O   0  0  0  0  0  0  0  0  0  0  0  0
  -15.2430  -41.1100  -13.7120 O   0  0  0  0  0  0  0  0  0  0  0  0
  -17.3860  -40.3350  -12.3180 C   0  0  0  0  0  0  0  0  0  0  0  0
  -17.7090  -39.4580  -11.1000 C   0  0  0  0  0  0  0  0  0  0  0  0
  -16.7930  -40.8640   -9.4640 C   0  0  0  0  0  0  0  0  0  0  0  0
  -15.8640  -41.1910   -7.9530 S   0  0  0  0  0  0  0  0  0  0  0  0
  5  6  1  6
  5 26  1  0
  5  4  1  0
  7  5  1  0
  4  3  1  0
  3  2  2  0
  3 35  1  0
 26 34  1  1
 34 35  1  0
 26 27  1  0
 26 33  1  0
 27 28  1  0
 29 28  1  1
 29 30  2  0
 33 32  1  0
 32 29  1  0
 29 31  2  0
 10  9  1  0
 11 10  1  0
  8  7  2  0
  7 24  1  0
  9  8  1  0
  9 22  2  0
 13 11  1  0
 11 12  2  0
 13 14  1  0
 21 13  2  0
 20 16  2  0
 20 21  1  0
 24 25  1  0
 24 23  2  0
 23 22  1  0
 14 15  2  0
 15 16  1  0
 16 17  1  0
 17 18  1  0
 18 19  1  0
  2  1  1  0
M  END
$$$$
