
     RDKit          3D

 35 38  0  0  0  0  0  0  0  0999 V2000
   25.6608   -5.5976  -17.7653 H   0  0  0  0  0  0  0  0  0  0  0  0
   24.7570   -5.3140  -17.3870 N   0  0  0  0  0  0  0  0  0  0  0  0
   23.6330   -5.4550  -18.1360 C   0  0  0  0  0  0  0  0  0  0  0  0
   22.4750   -5.0970  -17.6890 N   0  0  0  0  0  0  0  0  0  0  0  0
   21.1400   -5.1400  -18.3010 C   0  0  2  0  0  0  0  0  0  0  0  0
   20.3750   -3.9920  -17.5700 C   0  0  0  0  0  0  0  0  0  0  0  0
   20.4570   -6.4890  -17.9010 C   0  0  0  0  0  0  0  0  0  0  0  0
   21.2060   -7.5880  -17.4260 C   0  0  0  0  0  0  0  0  0  0  0  0
   20.6550   -8.8220  -17.0630 C   0  0  0  0  0  0  0  0  0  0  0  0
   21.5460   -9.8030  -16.5770 N   0  0  0  0  0  0  0  0  0  0  0  0
   21.3210  -11.1370  -16.3970 C   0  0  0  0  0  0  0  0  0  0  0  0
   20.2840  -11.7110  -16.6810 O   0  0  0  0  0  0  0  0  0  0  0  0
   22.4270  -11.9330  -15.8220 C   0  0  0  0  0  0  0  0  0  0  0  0
   22.3110  -13.3150  -15.5780 C   0  0  0  0  0  0  0  0  0  0  0  0
   23.3390  -13.9670  -15.0530 N   0  0  0  0  0  0  0  0  0  0  0  0
   24.4850  -13.3410  -14.7430 C   0  0  0  0  0  0  0  0  0  0  0  0
   25.5570  -13.9690  -14.2050 O   0  0  0  0  0  0  0  0  0  0  0  0
   25.5200  -15.3570  -13.8720 C   0  0  0  0  0  0  0  0  0  0  0  0
   24.9450  -15.5330  -12.6090 F   0  0  0  0  0  0  0  0  0  0  0  0
   24.5930  -11.9670  -14.9780 C   0  0  0  0  0  0  0  0  0  0  0  0
   23.5730  -11.3080  -15.4970 N   0  0  0  0  0  0  0  0  0  0  0  0
   19.2630   -8.9660  -17.1490 C   0  0  0  0  0  0  0  0  0  0  0  0
   18.4900   -7.9270  -17.6120 C   0  0  0  0  0  0  0  0  0  0  0  0
   19.0560   -6.7140  -17.9770 C   0  0  0  0  0  0  0  0  0  0  0  0
   18.1740   -5.7840  -18.4000 F   0  0  0  0  0  0  0  0  0  0  0  0
   21.3120   -4.9390  -19.8610 C   0  0  2  0  0  0  0  0  0  0  0  0
   21.9280   -3.5270  -20.1510 C   0  0  0  0  0  0  0  0  0  0  0  0
   22.2560   -3.2050  -21.6070 C   0  0  0  0  0  0  0  0  0  0  0  0
   20.7120   -3.1560  -22.5500 S   0  0  2  0  0  0  0  0  0  0  0  0
   21.0580   -3.1330  -23.9250 O   0  0  0  0  0  0  0  0  0  0  0  0
   19.8480   -2.1630  -22.0120 O   0  0  0  0  0  0  0  0  0  0  0  0
   20.0080   -4.7740  -22.1580 C   0  0  0  0  0  0  0  0  0  0  0  0
   19.9710   -4.9980  -20.6440 C   0  0  0  0  0  0  0  0  0  0  0  0
   22.2020   -6.1080  -20.4170 C   0  0  0  0  0  0  0  0  0  0  0  0
   23.8830   -6.1380  -19.7340 S   0  0  0  0  0  0  0  0  0  0  0  0
  5  6  1  1
  5 26  1  0
  5  4  1  0
  7  5  1  0
  4  3  1  0
  3  2  2  0
  3 35  1  0
 26 34  1  6
 34 35  1  0
 26 27  1  0
 26 33  1  0
 27 28  1  0
 29 28  1  1
 29 30  2  0
 33 32  1  0
 32 29  1  0
 29 31  2  0
 10  9  1  0
 11 10  1  0
  8  7  2  0
  7 24  1  0
  9  8  1  0
  9 22  2  0
 13 11  1  0
 11 12  2  0
 13 14  1  0
 21 13  2  0
 20 16  2  0
 20 21  1  0
 24 25  1  0
 24 23  2  0
 23 22  1  0
 14 15  2  0
 15 16  1  0
 16 17  1  0
 17 18  1  0
 18 19  1  0
  2  1  1  0
M  END
$$$$
