
     RDKit          3D

 35 38  0  0  0  0  0  0  0  0999 V2000
   25.6589   -4.7173  -17.2746 H   0  0  0  0  0  0  0  0  0  0  0  0
   24.6346   -4.8351  -16.6772 N   0  0  0  0  0  0  0  0  0  0  0  0
   23.6382   -4.3004  -17.3935 C   0  0  0  0  0  0  0  0  0  0  0  0
   22.4473   -4.7560  -17.3488 N   0  0  0  0  0  0  0  0  0  0  0  0
   21.2824   -4.5707  -18.1996 C   0  0  2  0  0  0  0  0  0  0  0  0
   20.4993   -3.4114  -17.4677 C   0  0  0  0  0  0  0  0  0  0  0  0
   20.3476   -5.8775  -18.1562 C   0  0  0  0  0  0  0  0  0  0  0  0
   20.9322   -7.1517  -18.1123 C   0  0  0  0  0  0  0  0  0  0  0  0
   20.5926   -8.1323  -17.1395 C   0  0  0  0  0  0  0  0  0  0  0  0
   21.6539   -8.8850  -16.6214 N   0  0  0  0  0  0  0  0  0  0  0  0
   21.7998  -10.2761  -16.5899 C   0  0  0  0  0  0  0  0  0  0  0  0
   20.8917  -11.0079  -16.9153 O   0  0  0  0  0  0  0  0  0  0  0  0
   22.7842  -10.7967  -15.6058 C   0  0  0  0  0  0  0  0  0  0  0  0
   24.0481  -11.2333  -16.0049 C   0  0  0  0  0  0  0  0  0  0  0  0
   24.8010  -11.9541  -15.1552 N   0  0  0  0  0  0  0  0  0  0  0  0
   24.2846  -12.3864  -14.0442 C   0  0  0  0  0  0  0  0  0  0  0  0
   24.6232  -13.6129  -13.5184 O   0  0  0  0  0  0  0  0  0  0  0  0
   25.8601  -14.2020  -13.7523 C   0  0  0  0  0  0  0  0  0  0  0  0
   25.7826  -15.6032  -13.6657 F   0  0  0  0  0  0  0  0  0  0  0  0
   23.1501  -11.7898  -13.5402 C   0  0  0  0  0  0  0  0  0  0  0  0
   22.3639  -11.0433  -14.3372 N   0  0  0  0  0  0  0  0  0  0  0  0
   19.3482   -8.0056  -16.5616 C   0  0  0  0  0  0  0  0  0  0  0  0
   18.6521   -6.8309  -16.6748 C   0  0  0  0  0  0  0  0  0  0  0  0
   19.0375   -5.8569  -17.5381 C   0  0  0  0  0  0  0  0  0  0  0  0
   18.0729   -5.1640  -18.0989 F   0  0  0  0  0  0  0  0  0  0  0  0
   21.7917   -4.2531  -19.6494 C   0  0  2  0  0  0  0  0  0  0  0  0
   20.5776   -4.0963  -20.6425 C   0  0  0  0  0  0  0  0  0  0  0  0
   20.9264   -3.6515  -22.0912 C   0  0  0  0  0  0  0  0  0  0  0  0
   21.8809   -4.9497  -22.8649 S   0  0  2  0  0  0  0  0  0  0  0  0
   22.3771   -4.4451  -24.0408 O   0  0  0  0  0  0  0  0  0  0  0  0
   21.1164   -6.1663  -22.8487 O   0  0  0  0  0  0  0  0  0  0  0  0
   23.2461   -5.1740  -21.7013 C   0  0  0  0  0  0  0  0  0  0  0  0
   22.7110   -5.3494  -20.2736 C   0  0  0  0  0  0  0  0  0  0  0  0
   22.6902   -2.9463  -19.5962 C   0  0  0  0  0  0  0  0  0  0  0  0
   24.1683   -3.1446  -18.5520 S   0  0  0  0  0  0  0  0  0  0  0  0
  5  6  1  1
  5 26  1  0
  5  4  1  0
  7  5  1  0
  4  3  1  0
  3  2  2  0
  3 35  1  0
 26 34  1  1
 34 35  1  0
 26 27  1  0
 26 33  1  0
 27 28  1  0
 29 28  1  1
 29 30  2  0
 33 32  1  0
 32 29  1  0
 29 31  2  0
 10  9  1  0
 11 10  1  0
  8  7  4  0
  7 24  4  0
  9  8  4  0
  9 22  4  0
 13 11  1  0
 11 12  2  0
 13 14  4  0
 21 13  4  0
 20 16  4  0
 20 21  4  0
 24 25  1  0
 24 23  4  0
 23 22  4  0
 14 15  4  0
 15 16  4  0
 16 17  1  0
 17 18  1  0
 18 19  1  0
  2  1  1  0
M  END
$$$$
