
     RDKit          3D

 30 32  0  0  0  0  0  0  0  0999 V2000
   14.0846   40.3893   -6.0972 H   0  0  0  0  0  0  0  0  0  0  0  0
   14.6460   39.5620   -6.2990 N   0  0  0  0  0  0  0  0  0  0  0  0
   15.4800   39.5610   -7.3340 C   0  0  0  0  0  0  0  0  0  0  0  0
   16.1660   38.5030   -7.5460 N   0  0  0  0  0  0  0  0  0  0  0  0
   17.0630   38.2490   -8.6900 C   0  0  2  0  0  0  0  0  0  0  0  0
   16.9640   36.7580   -9.0040 C   0  0  0  0  0  0  0  0  0  0  0  0
   18.4930   38.6150   -8.3350 C   0  0  0  0  0  0  0  0  0  0  0  0
   18.7960   39.2710   -7.1380 C   0  0  0  0  0  0  0  0  0  0  0  0
   20.0980   39.6280   -6.8110 C   0  0  0  0  0  0  0  0  0  0  0  0
   20.2580   40.2400   -5.6090 N   0  0  0  0  0  0  0  0  0  0  0  0
   21.3490   40.8200   -5.0860 C   0  0  0  0  0  0  0  0  0  0  0  0
   22.4660   40.8270   -5.5940 O   0  0  0  0  0  0  0  0  0  0  0  0
   21.1260   41.5230   -3.7810 C   0  0  0  0  0  0  0  0  0  0  0  0
   22.0570   42.4360   -3.2810 C   0  0  0  0  0  0  0  0  0  0  0  0
   21.7970   43.0320   -2.1090 N   0  0  0  0  0  0  0  0  0  0  0  0
   20.6400   42.7830   -1.4180 C   0  0  0  0  0  0  0  0  0  0  0  0
   20.3610   43.4010   -0.2250 O   0  0  0  0  0  0  0  0  0  0  0  0
   21.3450   44.1800    0.4560 C   0  0  0  0  0  0  0  0  0  0  0  0
   22.3510   43.3350    0.8560 F   0  0  0  0  0  0  0  0  0  0  0  0
   19.7140   41.8800   -1.9280 C   0  0  0  0  0  0  0  0  0  0  0  0
   19.9830   41.2670   -3.0870 N   0  0  0  0  0  0  0  0  0  0  0  0
   21.1520   39.3280   -7.6890 C   0  0  0  0  0  0  0  0  0  0  0  0
   20.9280   38.6880   -8.9120 C   0  0  0  0  0  0  0  0  0  0  0  0
   19.6340   38.3280   -9.2610 C   0  0  0  0  0  0  0  0  0  0  0  0
   19.4140   37.7120  -10.4230 F   0  0  0  0  0  0  0  0  0  0  0  0
   16.6430   39.0750   -9.9180 C   0  0  1  0  0  0  0  0  0  0  0  0
   15.3920   38.6650  -10.2670 F   0  0  0  0  0  0  0  0  0  0  0  0
   16.6220   40.5950   -9.7070 C   0  0  1  0  0  0  0  0  0  0  0  0
   16.1300   41.3390  -10.9480 C   0  0  0  0  0  0  0  0  0  0  0  0
   15.5970   40.9350   -8.3020 S   0  0  0  0  0  0  0  0  0  0  0  0
  7  5  1  0
  5  4  1  0
  5 26  1  0
  5  6  1  6
  8  7  2  0
  7 24  1  0
  9  8  1  0
  9 22  2  0
 10  9  1  0
 11 13  1  0
 11 12  2  0
 11 10  1  0
 13 21  1  0
 13 14  2  0
 21 20  2  0
 20 16  1  0
 16 15  2  0
 15 14  1  0
 16 17  1  0
  4  3  1  0
 17 18  1  0
 18 19  1  0
 22 23  1  0
 23 24  2  0
 24 25  1  0
  3 30  1  0
  3  2  2  0
 26 28  1  0
 28 29  1  6
 28 30  1  0
 26 27  1  1
  2  1  1  0
M  END
$$$$
