
     RDKit          3D

 35 39  0  0  0  0  0  0  0  0999 V2000
   15.4936    1.0480    1.9820 C   0  0  0  0  0  0  0  0  0  0  0  0
   14.9314    1.0438    3.2517 O   0  0  0  0  0  0  0  0  0  0  0  0
   13.5329    1.0884    3.1856 C   0  0  0  0  0  0  0  0  0  0  0  0
   12.8065    1.0292    2.0896 N   0  0  0  0  0  0  0  0  0  0  0  0
   11.5150    1.0792    2.4565 N   0  0  0  0  0  0  0  0  0  0  0  0
   11.3655    1.0243    3.7720 C   0  0  0  0  0  0  0  0  0  0  0  0
   10.2371    1.0796    4.5754 N   0  0  0  0  0  0  0  0  0  0  0  0
   10.3456    1.1454    5.9150 C   0  0  0  0  0  0  0  0  0  0  0  0
   11.6250    1.2701    6.4761 C   0  0  0  0  0  0  0  0  0  0  0  0
   11.8503    2.0494    7.7882 C   0  0  0  0  0  0  0  0  0  0  0  0
   10.8600    2.3614    8.7115 C   0  0  0  0  0  0  0  0  0  0  0  0
   11.4720    2.2650    9.8628 N   0  0  0  0  0  0  0  0  0  0  0  0
   10.9161    1.6941   11.0902 C   0  0  0  0  0  0  0  0  0  0  0  0
   10.9027    0.3557   11.3479 C   0  0  0  0  0  0  0  0  0  0  0  0
   10.8522   -0.5412   10.3180 F   0  0  0  0  0  0  0  0  0  0  0  0
   10.8657   -0.0530   12.6983 C   0  0  0  0  0  0  0  0  0  0  0  0
   10.8485    0.8587   13.7357 C   0  0  0  0  0  0  0  0  0  0  0  0
   10.9379    2.2285   13.3959 C   0  0  0  0  0  0  0  0  0  0  0  0
   11.4824    3.2928   14.2337 N   0  0  0  0  0  0  0  0  0  0  0  0
   10.6052    3.8259   15.5555 S   0  0  2  0  0  6  0  0  0  0  0  0
   10.6670    5.2425   15.7117 O   0  0  0  0  0  0  0  0  0  0  0  0
   11.0996    3.2748   16.8081 O   0  0  0  0  0  0  0  0  0  0  0  0
    8.8598    3.2257   15.3329 C   0  0  0  0  0  0  0  0  0  0  0  0
    8.3074    3.2616   14.0747 C   0  0  0  0  0  0  0  0  0  0  0  0
    6.8976    3.1562   14.0078 C   0  0  0  0  0  0  0  0  0  0  0  0
    6.1432    3.1759   15.1504 C   0  0  0  0  0  0  0  0  0  0  0  0
    6.7579    3.2144   16.3765 C   0  0  0  0  0  0  0  0  0  0  0  0
    5.7400    3.1618   18.0397 Br  0  0  0  0  0  0  0  0  0  0  0  0
    8.1286    3.1702   16.4885 C   0  0  0  0  0  0  0  0  0  0  0  0
   10.8514    2.6249   12.0966 C   0  0  0  0  0  0  0  0  0  0  0  0
   10.8537    3.9707   11.8125 F   0  0  0  0  0  0  0  0  0  0  0  0
   12.8236    2.2608    9.6702 N   0  0  0  0  0  0  0  0  0  0  0  0
   13.0250    2.1209    8.3741 N   0  0  0  0  0  0  0  0  0  0  0  0
   12.7731    1.0949    5.7272 C   0  0  0  0  0  0  0  0  0  0  0  0
   12.6311    1.0092    4.3268 C   0  0  0  0  0  0  0  0  0  0  0  0
 14 16  4  0
 14 15  1  0
 13 14  4  0
 11 10  4  0
 10  9  1  0
 10 33  4  0
  9 34  4  0
 34 35  4  0
 35  3  4  0
  3  4  4  0
  3  2  1  0
  2  1  1  0
  9  8  4  0
  8  7  4  0
 27 28  1  0
 29 27  4  0
 27 26  4  0
 23 29  4  0
 20 23  1  0
 23 24  4  0
 20 19  1  6
 20 21  2  0
 20 22  2  0
 18 19  1  0
 18 17  4  0
 30 18  4  0
 16 17  4  0
 12 13  1  0
 13 30  4  0
 12 11  4  0
 12 32  4  0
 35  6  4  0
  6  5  4  0
  6  7  4  0
  5  4  4  0
 33 32  4  0
 30 31  1  0
 24 25  4  0
 25 26  4  0
M  END
$$$$
