
     RDKit          3D

 20 22  0  0  0  0  0  0  0  0999 V2000
  -12.3362   -6.4027  -14.3623 N   0  0  0  0  0  0  0  0  0  0  0  0
  -12.3413   -7.0497  -13.0863 C   0  0  0  0  0  0  0  0  0  0  0  0
  -12.3448   -8.4034  -12.9707 N   0  0  0  0  0  0  0  0  0  0  0  0
  -12.3734   -9.0114  -11.7574 C   0  0  0  0  0  0  0  0  0  0  0  0
  -12.3282   -8.3024  -10.6032 N   0  0  0  0  0  0  0  0  0  0  0  0
  -12.3716   -6.9085  -10.5984 C   0  0  0  0  0  0  0  0  0  0  0  0
  -12.3364   -6.2227  -11.8314 C   0  0  0  0  0  0  0  0  0  0  0  0
  -12.4603   -4.8021  -11.5002 C   0  0  0  0  0  0  0  0  0  0  0  0
  -12.4775   -3.1964  -12.8506 I   0  0  0  0  0  0  0  0  0  0  0  0
  -12.6068   -4.7545  -10.1220 C   0  0  0  0  0  0  0  0  0  0  0  0
  -12.7387   -6.0508   -9.6418 N   0  0  0  0  0  0  0  0  0  0  0  0
  -13.5639   -6.3417   -8.5970 C   0  0  2  0  0  0  0  0  0  0  0  0
  -14.2621   -5.0106   -7.9521 O   0  0  0  0  0  0  0  0  0  0  0  0
  -13.8528   -4.9085   -6.7187 C   0  0  2  0  0  0  0  0  0  0  0  0
  -13.3336   -3.4852   -6.4759 C   0  0  0  0  0  0  0  0  0  0  0  0
  -13.4947   -2.7444   -7.5980 O   0  0  0  0  0  0  0  0  0  0  0  0
  -12.6866   -5.9697   -6.5327 C   0  0  1  0  0  0  0  0  0  0  0  0
  -12.7451   -6.5029   -5.2697 O   0  0  0  0  0  0  0  0  0  0  0  0
  -12.9426   -6.9642   -7.6442 C   0  0  1  0  0  0  0  0  0  0  0  0
  -13.6614   -8.1124   -7.0940 O   0  0  0  0  0  0  0  0  0  0  0  0
 16 15  1  0
 14 15  1  6
 14 13  1  0
 14 17  1  0
 13 12  1  0
 12 11  1  6
 12 19  1  0
 11 10  4  0
 11  6  4  0
 10  8  4  0
  8  7  4  0
  8  9  1  0
  7  2  4  0
  7  6  4  0
  2  3  4  0
  2  1  1  0
  3  4  4  0
  4  5  4  0
  5  6  4  0
 19 20  1  1
 19 17  1  0
 17 18  1  1
M  END
$$$$
