
     RDKit          3D

 29 33  0  0  0  0  0  0  0  0999 V2000
    5.9520   67.3910   -2.7880 C   0  0  0  0  0  0  0  0  0  0  0  0
    6.1380   67.7320   -4.2570 C   0  0  0  0  0  0  0  0  0  0  0  0
    5.8640   66.9650   -5.2910 N   0  0  0  0  0  0  0  0  0  0  0  0
    6.1680   67.6340   -6.4410 N   0  0  0  0  0  0  0  0  0  0  0  0
    6.6320   68.8310   -6.0700 C   0  0  0  0  0  0  0  0  0  0  0  0
    6.6200   68.9000   -4.7470 N   0  0  0  0  0  0  0  0  0  0  0  0
    7.0700   70.0940   -4.0350 C   0  0  0  0  0  0  0  0  0  0  0  0
    6.1670   70.6290   -2.9350 C   0  0  0  0  0  0  0  0  0  0  0  0
    6.6300   71.8700   -2.1990 C   0  0  0  0  0  0  0  0  0  0  0  0
    7.9630   72.5030   -2.6160 C   0  0  0  0  0  0  0  0  0  0  0  0
    8.4160   73.7270   -1.8740 C   0  0  0  0  0  0  0  0  0  0  0  0
    9.4140   74.5710   -2.2520 C   0  0  0  0  0  0  0  0  0  0  0  0
    9.5040   75.5100   -1.3200 N   0  0  0  0  0  0  0  0  0  0  0  0
    8.5590   75.2410   -0.3410 N   0  0  0  0  0  0  0  0  0  0  0  0
    8.3380   76.0300    0.8580 C   0  0  0  0  0  0  0  0  0  0  0  0
    7.9010   74.1420   -0.6860 C   0  0  0  0  0  0  0  0  0  0  0  0
    8.8490   71.9380   -3.7210 C   0  0  0  0  0  0  0  0  0  0  0  0
    8.3450   70.6910   -4.4400 C   0  0  0  0  0  0  0  0  0  0  0  0
    9.2170   70.0840   -5.5510 C   0  0  2  0  0  0  0  0  0  0  0  0
   10.4630   70.7950   -5.6330 N   0  0  0  0  0  0  0  0  0  0  0  0
   11.5190   70.4810   -4.7380 C   0  0  0  0  0  0  0  0  0  0  0  0
   12.8920   70.9960   -5.1100 C   0  0  0  0  0  0  0  0  0  0  0  0
   14.0440   70.6850   -4.1930 C   0  0  0  0  0  0  0  0  0  0  0  0
   13.7600   69.8790   -2.9450 C   0  0  0  0  0  0  0  0  0  0  0  0
   15.0900   69.5130   -1.8750 Cl  0  0  0  0  0  0  0  0  0  0  0  0
   12.3890   69.3810   -2.5660 C   0  0  0  0  0  0  0  0  0  0  0  0
   11.2400   69.6850   -3.4850 C   0  0  0  0  0  0  0  0  0  0  0  0
    8.6020   70.1650   -6.9340 C   0  0  0  0  0  0  0  0  0  0  0  0
    7.1030   70.0170   -6.9270 C   0  0  0  0  0  0  0  0  0  0  0  0
 10  9  2  0
  8  9  1  0
 17 10  1  0
 10 11  1  0
 18 17  2  0
 18  7  1  0
 19 18  1  0
  7  8  2  0
  7  6  1  0
 19 28  1  0
 19 20  1  6
 28 29  1  0
 29  5  1  0
  5  6  1  0
  5  4  2  0
  2  1  1  0
  6  2  1  0
  2  3  2  0
 11 16  2  0
 11 12  1  0
 16 14  1  0
 12 13  2  0
 14 15  1  0
 21 22  2  0
 21 27  1  0
 21 20  1  0
 22 23  1  0
 23 24  2  0
 24 26  1  0
 24 25  1  0
 26 27  2  0
  4  3  1  0
 14 13  1  0
M  END
$$$$
