
     RDKit          3D

 29 33  0  0  0  0  0  0  0  0999 V2000
    5.9200   67.2826   -2.2804 C   0  0  0  0  0  0  0  0  0  0  0  0
    6.1416   67.5737   -3.7758 C   0  0  0  0  0  0  0  0  0  0  0  0
    5.9119   66.7391   -4.8024 N   0  0  0  0  0  0  0  0  0  0  0  0
    6.1579   67.4285   -5.9616 N   0  0  0  0  0  0  0  0  0  0  0  0
    6.6238   68.6417   -5.6135 C   0  0  0  0  0  0  0  0  0  0  0  0
    6.6401   68.7063   -4.2726 N   0  0  0  0  0  0  0  0  0  0  0  0
    7.1136   69.9002   -3.5929 C   0  0  0  0  0  0  0  0  0  0  0  0
    6.1721   70.5820   -2.6100 C   0  0  0  0  0  0  0  0  0  0  0  0
    6.5848   71.9489   -2.0808 C   0  0  0  0  0  0  0  0  0  0  0  0
    7.9604   72.5017   -2.4574 C   0  0  0  0  0  0  0  0  0  0  0  0
    8.2895   73.8633   -1.9967 C   0  0  0  0  0  0  0  0  0  0  0  0
    7.8562   74.4737   -0.8526 C   0  0  0  0  0  0  0  0  0  0  0  0
    8.4707   75.6089   -0.7626 N   0  0  0  0  0  0  0  0  0  0  0  0
    9.2473   75.7906   -1.9094 N   0  0  0  0  0  0  0  0  0  0  0  0
    9.8420   77.0346   -2.3420 C   0  0  0  0  0  0  0  0  0  0  0  0
    9.2413   74.6591   -2.5920 C   0  0  0  0  0  0  0  0  0  0  0  0
    8.9293   71.7464   -3.3918 C   0  0  0  0  0  0  0  0  0  0  0  0
    8.4271   70.4685   -4.0072 C   0  0  0  0  0  0  0  0  0  0  0  0
    9.2620   69.7984   -5.1722 C   0  0  2  0  0  0  0  0  0  0  0  0
   10.5149   70.5185   -5.2644 N   0  0  0  0  0  0  0  0  0  0  0  0
   11.6015   70.1437   -4.4423 C   0  0  0  0  0  0  0  0  0  0  0  0
   11.3500   70.0813   -2.9388 C   0  0  0  0  0  0  0  0  0  0  0  0
   12.5236   70.1547   -2.0084 C   0  0  0  0  0  0  0  0  0  0  0  0
   13.9278   70.1060   -2.6178 C   0  0  0  0  0  0  0  0  0  0  0  0
   15.2694   70.1575   -1.5665 Cl  0  0  0  0  0  0  0  0  0  0  0  0
   14.1693   70.0612   -4.1628 C   0  0  0  0  0  0  0  0  0  0  0  0
   12.9917   70.0185   -5.0402 C   0  0  0  0  0  0  0  0  0  0  0  0
    8.6118   69.9175   -6.5371 C   0  0  0  0  0  0  0  0  0  0  0  0
    7.1127   69.7969   -6.4745 C   0  0  0  0  0  0  0  0  0  0  0  0
 10  9  4  0
  8  9  4  0
 17 10  4  0
 10 11  1  0
 18 17  4  0
 18  7  4  0
 19 18  1  0
  7  8  4  0
  7  6  1  0
 19 28  1  0
 19 20  1  6
 28 29  1  0
 29  5  1  0
  5  6  4  0
  5  4  4  0
  2  1  1  0
  6  2  4  0
  2  3  4  0
 11 16  4  0
 11 12  4  0
 16 14  4  0
 12 13  4  0
 14 15  1  0
 21 22  4  0
 21 27  4  0
 21 20  1  0
 22 23  4  0
 23 24  4  0
 24 26  4  0
 24 25  1  0
 26 27  4  0
  4  3  4  0
 14 13  4  0
M  END
$$$$
