
     RDKit          3D

 29 33  0  0  0  0  0  0  0  0999 V2000
   19.3638    8.9600   -7.2127 C   0  0  0  0  0  0  0  0  0  0  0  0
   20.4348    8.9703   -8.3225 C   0  0  0  0  0  0  0  0  0  0  0  0
   21.5649    8.2687   -8.3592 N   0  0  0  0  0  0  0  0  0  0  0  0
   22.0456    8.3301   -9.6159 N   0  0  0  0  0  0  0  0  0  0  0  0
   21.3554    9.2489  -10.2731 C   0  0  0  0  0  0  0  0  0  0  0  0
   20.3348    9.6462   -9.5159 N   0  0  0  0  0  0  0  0  0  0  0  0
   19.4269   10.7780   -9.9121 C   0  0  0  0  0  0  0  0  0  0  0  0
   20.0869   12.0336  -10.3141 C   0  0  0  0  0  0  0  0  0  0  0  0
   19.2251   13.1786  -10.9514 C   0  0  0  0  0  0  0  0  0  0  0  0
   17.7643   12.8095  -11.4629 C   0  0  0  0  0  0  0  0  0  0  0  0
   17.4864   13.1743  -12.9045 C   0  0  0  0  0  0  0  0  0  0  0  0
   17.4741   14.4691  -13.3897 C   0  0  0  0  0  0  0  0  0  0  0  0
   17.5795   14.4183  -14.7562 N   0  0  0  0  0  0  0  0  0  0  0  0
   17.5413   13.0812  -15.1105 N   0  0  0  0  0  0  0  0  0  0  0  0
   17.5793   12.6432  -16.4933 C   0  0  0  0  0  0  0  0  0  0  0  0
   17.4551   12.3262  -14.0137 C   0  0  0  0  0  0  0  0  0  0  0  0
   17.0548   11.5947  -10.8066 C   0  0  0  0  0  0  0  0  0  0  0  0
   17.9108   10.5386  -10.0944 C   0  0  0  0  0  0  0  0  0  0  0  0
   21.6321   12.2356  -10.3619 C   0  0  2  0  0  0  0  0  0  0  0  0
   21.9947   13.6000  -10.7715 N   0  0  0  0  0  0  0  0  0  0  0  0
   20.9338   14.6366  -10.6876 C   0  0  0  0  0  0  0  0  0  0  0  0
   19.8733   14.6577  -11.7546 C   0  0  0  0  0  0  0  0  0  0  0  0
   18.8305   15.7897  -11.7782 C   0  0  0  0  0  0  0  0  0  0  0  0
   19.0224   16.9401  -10.8186 C   0  0  0  0  0  0  0  0  0  0  0  0
   18.1079   18.4262  -10.9592 Cl  0  0  0  0  0  0  0  0  0  0  0  0
   20.0907   16.8988   -9.6798 C   0  0  0  0  0  0  0  0  0  0  0  0
   21.1195   15.7713   -9.6976 C   0  0  0  0  0  0  0  0  0  0  0  0
   22.3891   11.3015  -11.2921 C   0  0  0  0  0  0  0  0  0  0  0  0
   21.6493   10.0091  -11.5724 C   0  0  0  0  0  0  0  0  0  0  0  0
 10 17  1  0
 18 17  1  0
  9 10  1  0
 10 11  1  0
  8  9  1  0
  8  7  2  0
 19  8  1  0
  7 18  1  0
  7  6  1  0
 19 28  1  0
 19 20  1  6
 28 29  1  0
 29  5  1  0
  5  6  4  0
  5  4  4  0
  2  1  1  0
  6  2  4  0
  2  3  4  0
 11 16  4  0
 11 12  4  0
 16 14  4  0
 12 13  4  0
 14 15  1  0
 21 22  4  0
 21 27  4  0
 21 20  1  0
 22 23  4  0
 23 24  4  0
 24 26  4  0
 24 25  1  0
 26 27  4  0
  4  3  4  0
 14 13  4  0
M  END
$$$$
