
     RDKit          3D

 28 31  0  0  0  0  0  0  0  0999 V2000
  -27.1488  -83.9089   -8.5679 C   0  0  0  0  0  0  0  0  0  0  0  0
  -27.4347  -84.9865   -9.6019 C   0  0  0  0  0  0  0  0  0  0  0  0
  -26.6794  -86.0770   -9.7769 N   0  0  0  0  0  0  0  0  0  0  0  0
  -25.3429  -86.1801   -9.8702 C   0  0  0  0  0  0  0  0  0  0  0  0
  -24.6682  -84.9825   -9.8610 N   0  0  0  0  0  0  0  0  0  0  0  0
  -23.2997  -84.9939   -9.9940 C   0  0  0  0  0  0  0  0  0  0  0  0
  -22.6565  -86.2337   -9.9375 N   0  0  0  0  0  0  0  0  0  0  0  0
  -23.3555  -87.3505   -9.7843 C   0  0  0  0  0  0  0  0  0  0  0  0
  -24.6723  -87.3630   -9.6859 C   0  0  0  0  0  0  0  0  0  0  0  0
  -25.0672  -88.5264   -9.1563 C   0  0  0  0  0  0  0  0  0  0  0  0
  -23.9597  -89.1750   -8.8420 C   0  0  0  0  0  0  0  0  0  0  0  0
  -22.9113  -88.5464   -9.3830 N   0  0  0  0  0  0  0  0  0  0  0  0
  -21.7071  -89.1737   -9.9694 C   0  0  1  0  0  0  0  0  0  0  0  0
  -21.4780  -90.3136   -9.1679 O   0  0  0  0  0  0  0  0  0  0  0  0
  -21.0363  -91.3955  -10.0207 C   0  0  1  0  0  0  0  0  0  0  0  0
  -22.0783  -92.5369   -9.8851 C   0  0  1  0  0  0  0  0  0  0  0  0
  -23.0347  -92.4614  -10.9512 O   0  0  0  0  0  0  0  0  0  0  0  0
  -21.3933  -93.7874   -9.7575 C   0  0  0  0  0  0  0  0  0  0  0  0
  -21.2306  -94.5532  -10.9539 C   0  0  0  0  0  0  0  0  0  0  0  0
  -21.3203  -95.9283  -10.9091 C   0  0  0  0  0  0  0  0  0  0  0  0
  -21.2657  -96.5878   -9.6980 C   0  0  0  0  0  0  0  0  0  0  0  0
  -21.2710  -98.3331   -9.6841 Cl  0  0  0  0  0  0  0  0  0  0  0  0
  -21.2625  -95.8568   -8.4985 C   0  0  0  0  0  0  0  0  0  0  0  0
  -21.2188  -94.4514   -8.5213 C   0  0  0  0  0  0  0  0  0  0  0  0
  -20.9980  -90.8896  -11.4452 C   0  0  2  0  0  0  0  0  0  0  0  0
  -19.6645  -90.4074  -11.7543 O   0  0  0  0  0  0  0  0  0  0  0  0
  -21.9755  -89.6761  -11.3443 C   0  0  2  0  0  0  0  0  0  0  0  0
  -21.6967  -88.6734  -12.3551 O   0  0  0  0  0  0  0  0  0  0  0  0
  9  8  4  0
  8  7  4  0
  8 12  4  0
  4  9  4  0
  9 10  4  0
  4  5  4  0
  3  4  1  0
  5  6  4  0
  6  7  4  0
  2  1  1  0
  2  3  2  0
 10 11  4  0
 11 12  4  0
 13 12  1  6
 13 14  1  0
 13 27  1  0
 15 14  1  6
 27 28  1  1
 27 25  1  0
 25 26  1  6
 25 15  1  0
 15 16  1  0
 16 17  1  1
 16 18  1  0
 18 19  4  0
 18 24  4  0
 19 20  4  0
 20 21  4  0
 21 22  1  0
 21 23  4  0
 23 24  4  0
M  END
$$$$
