
     RDKit          3D

 40 42  0  0  0  0  0  0  0  0999 V2000
  -20.1171   29.2329   -0.8643 C   0  0  0  0  0  0  0  0  0  0  0  0
  -18.7484   29.7787   -0.4358 C   0  0  0  0  0  0  0  0  0  0  0  0
  -18.5220   30.0256    0.7711 O   0  0  0  0  0  0  0  0  0  0  0  0
  -17.7964   29.5014   -1.2500 N   0  0  0  0  0  0  0  0  0  0  0  0
  -16.5680   30.2789   -1.3146 C   0  0  2  0  0  0  0  0  0  0  0  0
  -15.3884   29.3955   -1.0139 C   0  0  1  0  0  0  0  0  0  0  0  0
  -14.2654   29.7229   -1.9271 O   0  0  0  0  0  0  0  0  0  0  0  0
  -14.8838   29.2182    0.2971 O   0  0  0  0  0  0  0  0  0  0  0  0
  -15.8702   29.4384    1.2813 C   0  0  2  0  0  0  0  0  0  0  0  0
  -16.9631   28.3917    1.1617 C   0  0  0  0  0  0  0  0  0  0  0  0
  -16.4933   27.3187    0.3412 O   0  0  0  0  0  0  0  0  0  0  0  0
  -16.7206   26.1987    1.2365 C   0  0  1  0  0  0  0  0  0  0  0  0
  -15.7589   26.2051    2.3486 O   0  0  0  0  0  0  0  0  0  0  0  0
  -15.7136   27.4858    3.0169 C   0  0  1  0  0  0  0  0  0  0  0  0
  -15.2872   28.4990    1.9659 C   0  0  0  0  0  0  0  0  0  0  0  0
  -14.2785   27.9992    1.1197 O   0  0  0  0  0  0  0  0  0  0  0  0
  -17.0480   27.8247    3.6612 C   0  0  2  0  0  0  0  0  0  0  0  0
  -17.2305   26.9754    4.7936 O   0  0  0  0  0  0  0  0  0  0  0  0
  -18.1778   27.7282    2.6809 C   0  0  2  0  0  0  0  0  0  0  0  0
  -19.4139   27.7956    3.4077 O   0  0  0  0  0  0  0  0  0  0  0  0
  -18.1715   26.3962    1.8898 C   0  0  1  0  0  0  0  0  0  0  0  0
  -19.1771   26.3808    0.8866 N   0  0  0  0  0  0  0  0  0  0  0  0
  -18.9973   25.7953   -0.3352 C   0  0  0  0  0  0  0  0  0  0  0  0
  -20.2826   25.3527   -1.0255 C   0  0  0  0  0  0  0  0  0  0  0  0
  -17.9132   25.7559   -0.8930 O   0  0  0  0  0  0  0  0  0  0  0  0
  -16.4279   30.8330    1.2159 C   0  0  1  0  0  0  0  0  0  0  0  0
  -15.6182   31.7297    1.9137 O   0  0  0  0  0  0  0  0  0  0  0  0
  -16.6893   31.3580   -0.1818 C   0  0  1  0  0  0  0  0  0  0  0  0
  -15.6898   32.3866   -0.5037 O   0  0  0  0  0  0  0  0  0  0  0  0
  -14.7588   32.0415    0.5523 C   0  0  2  0  0  0  0  0  0  0  0  0
  -15.1020   30.8171    1.2240 O   0  0  0  0  0  0  0  0  0  0  0  0
  -14.6921   30.6295    2.5622 C   0  0  1  0  0  0  0  0  0  0  0  0
  -13.2396   30.2667    2.6082 C   0  0  0  0  0  0  0  0  0  0  0  0
  -13.0601   28.8518    2.7066 O   0  0  0  0  0  0  0  0  0  0  0  0
  -15.0612   31.8192    3.4978 C   0  0  2  0  0  0  0  0  0  0  0  0
  -16.4619   31.9620    3.6084 O   0  0  0  0  0  0  0  0  0  0  0  0
  -14.3812   33.0630    2.9076 C   0  0  2  0  0  0  0  0  0  0  0  0
  -14.8041   34.1502    3.7233 O   0  0  0  0  0  0  0  0  0  0  0  0
  -14.7750   33.2921    1.4903 C   0  0  2  0  0  0  0  0  0  0  0  0
  -16.0728   33.9569    1.4645 O   0  0  0  0  0  0  0  0  0  0  0  0
 12 21  1  0
 12 13  1  0
 12 11  1  1
 21 19  1  0
 21 22  1  6
 19 17  1  0
 19 20  1  1
 14 17  1  0
 17 18  1  6
 14 15  1  1
 13 14  1  0
 15 16  1  0
 23 24  1  0
 22 23  1  0
 23 25  2  0
  8  6  1  0
  9  8  1  0
  6  7  1  6
  6  5  1  0
  5  4  1  6
 28  5  1  0
  4  2  1  0
 28 29  1  1
 26 28  1  0
 30 29  1  6
 26 27  1  1
  9 26  1  0
  9 10  1  6
 10 11  1  0
  2  3  2  0
  2  1  1  0
 30 39  1  0
 30 31  1  0
 39 37  1  0
 39 40  1  6
 37 35  1  0
 37 38  1  1
 35 32  1  0
 35 36  1  6
 32 33  1  1
 32 31  1  0
 33 34  1  0
M  END
$$$$
