
     RDKit          3D

 25 28  0  0  0  0  0  0  0  0999 V2000
   12.0480    7.2127  -18.5814 O   0  0  0  0  0  0  0  0  0  0  0  0
   13.1436    6.7879  -18.2275 C   0  0  0  0  0  0  0  0  0  0  0  0
   14.2044    6.9690  -19.0222 O   0  0  0  0  0  0  0  0  0  0  0  0
   13.4622    6.4243  -16.8198 C   0  0  0  0  0  0  0  0  0  0  0  0
   14.4281    5.5541  -16.5766 C   0  0  0  0  0  0  0  0  0  0  0  0
   14.5575    4.9450  -15.3577 C   0  0  0  0  0  0  0  0  0  0  0  0
   13.6823    5.3211  -14.2657 C   0  0  0  0  0  0  0  0  0  0  0  0
   12.7695    6.2844  -14.4800 C   0  0  0  0  0  0  0  0  0  0  0  0
   12.6120    6.8787  -15.7159 C   0  0  0  0  0  0  0  0  0  0  0  0
   11.9020    6.6704  -13.5176 N   0  0  0  0  0  0  0  0  0  0  0  0
   11.9848    6.2316  -12.2455 C   0  0  0  0  0  0  0  0  0  0  0  0
   11.3122    6.9640  -11.1926 N   0  0  0  0  0  0  0  0  0  0  0  0
    9.9836    7.6034  -11.2440 C   0  0  0  0  0  0  0  0  0  0  0  0
    9.3005    7.9243  -10.0681 C   0  0  0  0  0  0  0  0  0  0  0  0
    7.9593    8.3987  -10.1577 C   0  0  0  0  0  0  0  0  0  0  0  0
    7.3416    8.6093  -11.3551 C   0  0  0  0  0  0  0  0  0  0  0  0
    8.0629    8.3111  -12.5024 C   0  0  0  0  0  0  0  0  0  0  0  0
    7.3185    8.3838  -14.1422 Cl  0  0  0  0  0  0  0  0  0  0  0  0
    9.4166    7.8429  -12.4491 C   0  0  0  0  0  0  0  0  0  0  0  0
   12.8495    5.1555  -11.9615 C   0  0  0  0  0  0  0  0  0  0  0  0
   12.9811    4.5839  -10.6524 C   0  0  0  0  0  0  0  0  0  0  0  0
   14.0094    3.8249  -10.3186 C   0  0  0  0  0  0  0  0  0  0  0  0
   14.9360    3.4442  -11.2988 N   0  0  0  0  0  0  0  0  0  0  0  0
   14.8220    3.9111  -12.5523 C   0  0  0  0  0  0  0  0  0  0  0  0
   13.8001    4.7307  -12.9268 C   0  0  0  0  0  0  0  0  0  0  0  0
  7  8  4  0
  8  9  4  0
 10  8  4  0
  7  6  4  0
 25  7  4  0
  6  5  4  0
  5  4  4  0
  9  4  4  0
  4  2  1  0
 20 25  4  0
 20 11  4  0
 21 20  4  0
 25 24  4  0
 11 10  4  0
 11 12  1  0
 22 23  4  0
 22 21  4  0
 23 24  4  0
 12 13  1  0
 13 19  4  0
 13 14  4  0
 19 17  4  0
 17 16  4  0
 17 18  1  0
 16 15  4  0
 15 14  4  0
  2  3  1  0
  2  1  2  0
M  END
$$$$
