
     RDKit          3D

 25 28  0  0  0  0  0  0  0  0999 V2000
   12.4330    7.6050  -18.0250 O   0  0  0  0  0  0  0  0  0  0  0  0
   13.3350    6.9060  -17.6120 C   0  0  0  0  0  0  0  0  0  0  0  0
   14.4490    6.6480  -18.2970 O   0  0  0  0  0  0  0  0  0  0  0  0
   13.2780    6.2690  -16.2610 C   0  0  0  0  0  0  0  0  0  0  0  0
   14.2440    5.3810  -15.9560 C   0  0  0  0  0  0  0  0  0  0  0  0
   14.2550    4.7910  -14.6980 C   0  0  0  0  0  0  0  0  0  0  0  0
   13.2460    5.0930  -13.7200 C   0  0  0  0  0  0  0  0  0  0  0  0
   12.2540    6.0040  -14.0700 C   0  0  0  0  0  0  0  0  0  0  0  0
   12.2560    6.6200  -15.2890 C   0  0  0  0  0  0  0  0  0  0  0  0
   11.2780    6.3600  -13.1840 N   0  0  0  0  0  0  0  0  0  0  0  0
   11.2220    5.8370  -11.9360 C   0  0  0  0  0  0  0  0  0  0  0  0
   10.1200    6.2680  -11.0630 N   0  0  0  0  0  0  0  0  0  0  0  0
    9.1100    7.2880  -11.3570 C   0  0  0  0  0  0  0  0  0  0  0  0
    8.6100    8.0910  -10.3380 C   0  0  0  0  0  0  0  0  0  0  0  0
    7.5790    9.0630  -10.6310 C   0  0  0  0  0  0  0  0  0  0  0  0
    7.0720    9.1920  -11.9050 C   0  0  0  0  0  0  0  0  0  0  0  0
    7.5890    8.3680  -12.9090 C   0  0  0  0  0  0  0  0  0  0  0  0
    7.0290    8.4050  -14.5850 Cl  0  0  0  0  0  0  0  0  0  0  0  0
    8.6070    7.4010  -12.5910 C   0  0  0  0  0  0  0  0  0  0  0  0
   12.1660    4.8890  -11.5130 C   0  0  0  0  0  0  0  0  0  0  0  0
   12.1210    4.2880  -10.2200 C   0  0  0  0  0  0  0  0  0  0  0  0
   13.0660    3.3790   -9.8530 C   0  0  0  0  0  0  0  0  0  0  0  0
   14.0810    3.0500  -10.7170 N   0  0  0  0  0  0  0  0  0  0  0  0
   14.1490    3.5870  -11.9470 C   0  0  0  0  0  0  0  0  0  0  0  0
   13.2150    4.4930  -12.3990 C   0  0  0  0  0  0  0  0  0  0  0  0
  7  8  1  0
  8  9  2  0
 10  8  1  0
  7  6  2  0
 25  7  1  0
  6  5  1  0
  5  4  2  0
  9  4  1  0
  4  2  1  0
 20 25  2  0
 20 11  1  0
 21 20  1  0
 25 24  1  0
 11 10  2  0
 11 12  1  0
 22 23  1  0
 22 21  2  0
 23 24  2  0
 12 13  1  0
 13 19  2  0
 13 14  1  0
 19 17  1  0
 17 16  2  0
 17 18  1  0
 16 15  1  0
 15 14  2  0
  2  3  1  0
  2  1  2  0
M  END
$$$$
