
     RDKit          3D

 30 31  0  0  0  0  0  0  0  0999 V2000
   12.0050   34.1510   10.6870 C   0  0  0  0  0  0  0  0  0  0  0  0
   12.1530   33.5940    9.2810 C   0  0  0  0  0  0  0  0  0  0  0  0
   10.8360   33.1030    8.6360 C   0  0  2  0  0  0  0  0  0  0  0  0
   10.3020   31.8200    9.2620 C   0  0  0  0  0  0  0  0  0  0  0  0
   11.1350   32.8790    7.1800 C   0  0  0  0  0  0  0  0  0  0  0  0
   12.3150   33.2280    6.9770 O   0  0  0  0  0  0  0  0  0  0  0  0
   10.1070   32.2810    6.1940 O   0  0  0  0  0  0  0  0  0  0  0  0
   10.0430   32.7940    4.8280 C   0  0  1  0  0  0  0  0  0  0  0  0
   10.2960   31.6840    3.7960 C   0  0  0  0  0  0  0  0  0  0  0  0
    9.4450   31.8100    2.5320 C   0  0  1  0  0  0  0  0  0  0  0  0
    9.6230   30.6110    1.6100 C   0  0  0  0  0  0  0  0  0  0  0  0
    7.9970   31.8810    2.9380 C   0  0  0  0  0  0  0  0  0  0  0  0
    7.6620   32.7920    3.8510 C   0  0  0  0  0  0  0  0  0  0  0  0
    6.2290   32.9760    4.2110 C   0  0  0  0  0  0  0  0  0  0  0  0
    5.8630   34.0090    4.9770 C   0  0  0  0  0  0  0  0  0  0  0  0
    6.8790   35.0740    5.3640 C   0  0  2  0  0  0  0  0  0  0  0  0
    6.9350   36.1410    4.2670 C   0  0  0  0  0  0  0  0  0  0  0  0
    8.2500   34.4370    5.6520 C   0  0  2  0  0  0  0  0  0  0  0  0
    9.3050   35.4740    6.0200 C   0  0  0  0  0  0  0  0  0  0  0  0
    8.9600   36.1690    7.3350 C   0  0  0  0  0  0  0  0  0  0  0  0
   10.0030   37.2310    7.6760 C   0  0  1  0  0  0  0  0  0  0  0  0
   10.1450   38.0880    6.5360 O   0  0  0  0  0  0  0  0  0  0  0  0
    9.5610   38.0410    8.8990 C   0  0  0  0  0  0  0  0  0  0  0  0
    9.7740   37.2880   10.2130 C   0  0  1  0  0  0  0  0  0  0  0  0
   11.1610   37.2020   10.5580 O   0  0  0  0  0  0  0  0  0  0  0  0
    9.0490   37.9980   11.3530 C   0  0  0  0  0  0  0  0  0  0  0  0
    9.6250   39.3710   11.6040 C   0  0  0  0  0  0  0  0  0  0  0  0
    8.9530   40.1950   12.2090 O   0  0  0  0  0  0  0  0  0  0  0  0
   10.8500   39.7040   11.1860 O   0  0  0  0  0  0  0  0  0  0  0  0
    8.7690   33.6150    4.4730 C   0  0  1  0  0  0  0  0  0  0  0  0
 27 29  1  0
 24 25  1  1
 27 28  2  0
 21 22  1  6
  8  7  1  1
  7  5  1  0
 13 14  1  0
 15 14  2  0
 30 13  1  1
 13 12  2  0
 20 21  1  0
 21 23  1  0
 16 15  1  0
 18 30  1  0
 30  8  1  0
 26 27  1  0
 18 16  1  0
 16 17  1  6
 18 19  1  6
 23 24  1  0
 24 26  1  0
 12 10  1  0
  8  9  1  0
 20 19  1  0
  9 10  1  0
 10 11  1  6
  5  3  1  0
  5  6  2  0
  3  2  1  0
  3  4  1  1
  2  1  1  0
M  END
$$$$
