
     RDKit          3D

 30 31  0  0  0  0  0  0  0  0999 V2000
    7.9332   36.3540   12.1277 C   0  0  0  0  0  0  0  0  0  0  0  0
    9.4406   36.2074   11.9557 C   0  0  0  0  0  0  0  0  0  0  0  0
    9.9038   35.3893   10.7586 C   0  0  1  0  0  0  0  0  0  0  0  0
    9.8147   33.8710   11.0090 C   0  0  0  0  0  0  0  0  0  0  0  0
    9.0794   35.8480    9.5742 C   0  0  0  0  0  0  0  0  0  0  0  0
    7.8671   35.8106   10.0090 O   0  0  0  0  0  0  0  0  0  0  0  0
    9.5971   35.8078    8.1242 O   0  0  0  0  0  0  0  0  0  0  0  0
    8.7858   35.1485    7.0887 C   0  0  2  0  0  0  0  0  0  0  0  0
    7.8391   36.1591    6.4506 C   0  0  0  0  0  0  0  0  0  0  0  0
    6.5620   36.4022    7.2214 C   0  0  2  0  0  0  0  0  0  0  0  0
    6.8127   37.0351    8.6104 C   0  0  0  0  0  0  0  0  0  0  0  0
    5.8967   35.0519    7.4723 C   0  0  0  0  0  0  0  0  0  0  0  0
    6.6552   34.1233    8.0822 C   0  0  0  0  0  0  0  0  0  0  0  0
    6.2681   33.7221    9.4870 C   0  0  0  0  0  0  0  0  0  0  0  0
    7.2114   33.2572   10.3336 C   0  0  0  0  0  0  0  0  0  0  0  0
    8.6382   33.3536    9.9154 C   0  0  1  0  0  0  0  0  0  0  0  0
    9.4446   32.4381   10.8759 C   0  0  0  0  0  0  0  0  0  0  0  0
    8.8539   32.9621    8.4168 C   0  0  1  0  0  0  0  0  0  0  0  0
    8.4924   31.5513    8.1543 C   0  0  0  0  0  0  0  0  0  0  0  0
    8.1092   31.3868    6.7015 C   0  0  0  0  0  0  0  0  0  0  0  0
    9.1542   30.5549    5.9322 C   0  0  2  0  0  0  0  0  0  0  0  0
    9.9063   29.8839    6.8664 O   0  0  0  0  0  0  0  0  0  0  0  0
   10.0192   31.5386    5.1247 C   0  0  0  0  0  0  0  0  0  0  0  0
    9.5447   33.0017    5.2028 C   0  0  1  0  0  0  0  0  0  0  0  0
   10.6264   33.8999    5.0662 O   0  0  0  0  0  0  0  0  0  0  0  0
    8.5512   33.2387    4.1094 C   0  0  0  0  0  0  0  0  0  0  0  0
    7.1604   33.4289    4.6792 C   0  0  0  0  0  0  0  0  0  0  0  0
    6.1639   33.4508    3.9378 O   0  0  0  0  0  0  0  0  0  0  0  0
    6.9795   33.3706    5.9936 O   0  0  0  0  0  0  0  0  0  0  0  0
    8.0556   33.9044    7.5264 C   0  0  2  0  0  0  0  0  0  0  0  0
 27 29  1  0
 24 25  1  6
 27 28  2  0
 21 22  1  6
  8  7  1  6
  7  5  1  0
 13 14  1  0
 15 14  2  0
 30 13  1  6
 13 12  2  0
 20 21  1  0
 21 23  1  0
 16 15  1  0
 18 30  1  0
 30  8  1  0
 26 27  1  0
 18 16  1  0
 16 17  1  6
 18 19  1  6
 23 24  1  0
 24 26  1  0
 12 10  1  0
  8  9  1  0
 20 19  1  0
  9 10  1  0
 10 11  1  6
  5  3  1  0
  5  6  2  0
  3  2  1  0
  3  4  1  6
  2  1  1  0
M  END
$$$$
