
     RDKit          3D

 31 32  0  0  0  0  0  0  0  0999 V2000
   -8.6959   38.5008  -10.3150 C   0  0  0  0  0  0  0  0  0  0  0  0
   -8.5175   36.9365  -10.3911 C   0  0  0  0  0  0  0  0  0  0  0  0
   -8.1008   36.3671   -9.0459 C   0  0  2  0  0  0  0  0  0  0  0  0
   -6.6058   36.5110   -8.6064 C   0  0  0  0  0  0  0  0  0  0  0  0
   -8.6055   34.9312   -9.1569 C   0  0  0  0  0  0  0  0  0  0  0  0
   -8.8157   36.8261   -7.8660 C   0  0  0  0  0  0  0  0  0  0  0  0
   -8.7924   38.1100   -7.9104 O   0  0  0  0  0  0  0  0  0  0  0  0
   -9.0397   36.0193   -6.6154 O   0  0  0  0  0  0  0  0  0  0  0  0
   -7.8555   35.5192   -6.1108 C   0  0  2  0  0  0  0  0  0  0  0  0
   -6.7034   36.5509   -6.0807 C   0  0  0  0  0  0  0  0  0  0  0  0
   -5.3613   36.0172   -6.4377 C   0  0  2  0  0  0  0  0  0  0  0  0
   -4.3792   37.1238   -6.6879 C   0  0  0  0  0  0  0  0  0  0  0  0
   -5.4153   35.2403   -7.7270 C   0  0  0  0  0  0  0  0  0  0  0  0
   -6.4514   34.4070   -7.8553 C   0  0  0  0  0  0  0  0  0  0  0  0
   -6.7694   33.9073   -9.1863 C   0  0  0  0  0  0  0  0  0  0  0  0
   -8.0095   33.5884   -9.5352 C   0  0  0  0  0  0  0  0  0  0  0  0
   -9.0691   33.6949   -8.4963 C   0  0  2  0  0  0  0  0  0  0  0  0
   -9.7359   35.0441   -8.4911 C   0  0  0  0  0  0  0  0  0  0  0  0
   -8.5121   33.3110   -7.1438 C   0  0  1  0  0  0  0  0  0  0  0  0
   -8.0194   31.8667   -7.1575 C   0  0  0  0  0  0  0  0  0  0  0  0
   -7.8950   31.3581   -5.7319 C   0  0  0  0  0  0  0  0  0  0  0  0
   -9.1933   30.6733   -5.3244 C   0  0  2  0  0  0  0  0  0  0  0  0
  -10.1365   30.7096   -6.4007 O   0  0  0  0  0  0  0  0  0  0  0  0
   -9.8144   31.4426   -4.2499 C   0  0  0  0  0  0  0  0  0  0  0  0
   -9.5591   32.8733   -4.3704 C   0  0  2  0  0  0  0  0  0  0  0  0
   -9.0101   33.1007   -5.6505 O   0  0  0  0  0  0  0  0  0  0  0  0
   -8.4990   33.2779   -3.3459 C   0  0  0  0  0  0  0  0  0  0  0  0
   -7.3692   33.8473   -4.1255 C   0  0  0  0  0  0  0  0  0  0  0  0
   -7.2260   33.5019   -5.2897 O   0  0  0  0  0  0  0  0  0  0  0  0
   -6.8280   34.9822   -3.7425 O   0  0  0  0  0  0  0  0  0  0  0  0
   -7.3682   34.2054   -6.7415 C   0  0  2  0  0  0  0  0  0  0  0  0
 28 29  2  0
 28 30  1  0
 25 26  1  1
 22 23  1  1
  9  8  1  1
  8  6  1  0
  6  7  2  0
 27 28  1  0
 25 27  1  0
 24 25  1  0
 22 24  1  0
 21 22  1  0
 20 21  1  0
 19 20  1  1
 19 17  1  0
 31 19  1  0
 16 17  1  0
 17 18  1  1
 15 16  2  0
 14 15  1  0
 13 14  2  0
 31 14  1  1
 11 13  1  0
 10 11  1  0
 11 12  1  1
 10  9  1  0
  9 31  1  0
  6  3  1  0
  3  2  1  0
  3  4  1  1
  3  5  1  0
  2  1  1  0
M  END
$$$$
