
     RDKit          3D

 27 28  0  0  0  0  0  0  0  0999 V2000
   20.1456   -8.3806   45.5517 C   0  0  0  0  0  0  0  0  0  0  0  0
   20.7472   -7.0298   45.1579 C   0  0  0  0  0  0  0  0  0  0  0  0
   22.1366   -7.2125   44.5175 C   0  0  0  0  0  0  0  0  0  0  0  0
   22.7788   -5.8265   44.3374 C   0  0  0  0  0  0  0  0  0  0  0  0
   23.0939   -5.5790   42.8562 C   0  0  0  0  0  0  0  0  0  0  0  0
   23.3531   -4.0919   42.6501 C   0  0  0  0  0  0  0  0  0  0  0  0
   23.6188   -3.7444   41.1459 C   0  0  1  0  0  0  0  0  0  0  0  0
   22.3618   -3.5093   40.4081 C   0  0  0  0  0  0  0  0  0  0  0  0
   24.4712   -2.4212   41.1343 C   0  0  0  0  0  0  0  0  0  0  0  0
   24.3583   -4.7758   40.5643 C   0  0  0  0  0  0  0  0  0  0  0  0
   23.8613   -5.3095   39.3926 C   0  0  0  0  0  0  0  0  0  0  0  0
   24.5815   -6.4337   38.8005 C   0  0  0  0  0  0  0  0  0  0  0  0
   25.5570   -7.1147   39.5054 C   0  0  0  0  0  0  0  0  0  0  0  0
   25.5846   -8.5133   39.5808 C   0  0  1  0  0  0  0  0  0  0  0  0
   26.1777   -8.9844   38.2944 C   0  0  0  0  0  0  0  0  0  0  0  0
   27.6109   -8.5244   38.1563 C   0  0  2  0  0  0  0  0  0  0  0  0
   28.1401   -9.0599   36.8572 O   0  0  0  0  0  0  0  0  0  0  0  0
   28.4243   -9.1144   39.2661 C   0  0  0  0  0  0  0  0  0  0  0  0
   27.8999   -8.6399   40.5957 C   0  0  0  0  0  0  0  0  0  0  0  0
   26.4697   -9.0409   40.7877 C   0  0  1  0  0  0  0  0  0  0  0  0
   25.9438   -8.4938   42.1601 C   0  0  0  0  0  0  0  0  0  0  0  0
   25.9559   -9.6381   43.1743 C   0  0  0  0  0  0  0  0  0  0  0  0
   25.9198  -10.9745   42.4070 C   0  0  0  0  0  0  0  0  0  0  0  0
   25.9261  -10.7099   41.0188 O   0  0  0  0  0  0  0  0  0  0  0  0
   26.1420   -6.3700   40.5867 C   0  0  0  0  0  0  0  0  0  0  0  0
   27.5286   -6.4038   40.6013 O   0  0  0  0  0  0  0  0  0  0  0  0
   25.4789   -5.3085   41.1716 C   0  0  0  0  0  0  0  0  0  0  0  0
  1  2  1  0
  2  3  1  0
  3  4  1  0
  4  5  1  0
  5  6  1  0
  6  7  1  0
  7  8  1  1
  7  9  1  0
  7 10  1  0
 10 11  4  0
 10 27  4  0
 11 12  4  0
 12 13  4  0
 14 13  1  1
 13 25  4  0
 14 15  1  0
 14 20  1  0
 15 16  1  0
 16 18  1  0
 16 17  1  6
 18 19  1  0
 19 20  1  0
 20 21  1  1
 21 22  1  0
 22 23  1  0
 23 24  1  0
 25 27  4  0
 25 26  1  0
M  END
$$$$
