
     RDKit          3D

 34 36  0  0  0  0  0  0  0  0999 V2000
   16.0320    7.4040  158.8280 C   0  0  0  0  0  0  0  0  0  0  0  0
   15.0120    7.2130  159.7690 O   0  0  0  0  0  0  0  0  0  0  0  0
   13.7240    7.5810  159.3520 C   0  0  0  0  0  0  0  0  0  0  0  0
   12.6210    7.1880  160.0850 C   0  0  0  0  0  0  0  0  0  0  0  0
   11.3380    7.5550  159.6870 C   0  0  0  0  0  0  0  0  0  0  0  0
   11.1590    8.3280  158.5470 C   0  0  0  0  0  0  0  0  0  0  0  0
    9.4750    8.7800  158.0380 S   0  0  2  0  0  0  0  0  0  0  0  0
    9.3400   10.3380  157.5110 O   0  0  0  0  0  0  0  0  0  0  0  0
    8.4890    8.5310  159.3400 O   0  0  0  0  0  0  0  0  0  0  0  0
    9.0240    7.7400  156.7650 N   0  0  0  0  0  0  0  0  0  0  0  0
    8.9890    8.2400  155.4010 C   0  0  0  0  0  0  0  0  0  0  0  0
    8.1550    7.3380  154.4990 C   0  0  0  0  0  0  0  0  0  0  0  0
    7.0850    7.7160  154.1570 O   0  0  0  0  0  0  0  0  0  0  0  0
    8.7500    6.3620  157.1110 C   0  0  0  0  0  0  0  0  0  0  0  0
    9.7980    5.4570  157.0140 C   0  0  0  0  0  0  0  0  0  0  0  0
    9.6080    4.1290  157.3510 C   0  0  0  0  0  0  0  0  0  0  0  0
    8.3730    3.7120  157.7960 C   0  0  0  0  0  0  0  0  0  0  0  0
    7.3260    4.6090  157.9110 C   0  0  0  0  0  0  0  0  0  0  0  0
    7.5040    5.9390  157.5690 C   0  0  0  0  0  0  0  0  0  0  0  0
    6.3300    6.9100  157.7020 C   0  0  0  0  0  0  0  0  0  0  0  0
    5.7310    7.1990  156.4060 N   0  0  1  0  0  0  0  0  0  0  0  0
    4.9980    6.0520  155.9000 C   0  0  0  0  0  0  0  0  0  0  0  0
    4.7910    8.2980  156.5350 C   0  0  0  0  0  0  0  0  0  0  0  0
    5.5400    9.5920  156.8340 C   0  0  0  0  0  0  0  0  0  0  0  0
    4.8190   10.2830  157.9860 C   0  0  0  0  0  0  0  0  0  0  0  0
    5.6080   11.5100  158.4330 C   0  0  0  0  0  0  0  0  0  0  0  0
    6.6770   11.9590  157.6860 C   0  0  0  0  0  0  0  0  0  0  0  0
    7.3820   13.0770  158.1050 C   0  0  0  0  0  0  0  0  0  0  0  0
    7.0200   13.7480  159.2640 C   0  0  0  0  0  0  0  0  0  0  0  0
    7.9530   15.1870  159.7660 Cl  0  0  0  0  0  0  0  0  0  0  0  0
    5.9430   13.3000  160.0160 C   0  0  0  0  0  0  0  0  0  0  0  0
    5.2430   12.1820  159.5910 C   0  0  0  0  0  0  0  0  0  0  0  0
   12.2680    8.7130  157.8170 C   0  0  0  0  0  0  0  0  0  0  0  0
   13.5440    8.3530  158.2180 C   0  0  0  0  0  0  0  0  0  0  0  0
 21 22  1  1
 26 32  2  0
 32 31  1  0
 19 20  1  0
 20 21  1  0
 19 18  2  0
 14 19  1  0
 18 17  1  0
 16 17  2  0
 15 16  1  0
 14 15  2  0
 10 14  1  0
 11 12  1  0
 10 11  1  0
  6  5  2  0
  6 33  1  0
  7  6  1  0
 23 24  1  0
 21 23  1  0
  5  4  1  0
  4  3  2  0
 34  3  1  0
  3  2  1  0
 33 34  2  0
  2  1  1  0
 12 13  1  0
 24 25  1  0
 25 26  1  0
 26 27  1  0
 27 28  2  0
 28 29  1  0
 31 29  2  0
 29 30  1  0
  7 10  1  6
  7  8  2  0
  7  9  2  0
M  CHG  1  21   1
M  END
$$$$
