
     RDKit          3D

 34 36  0  0  0  0  0  0  0  0999 V2000
    7.5379   19.9858  164.2671 C   0  0  0  0  0  0  0  0  0  0  0  0
    7.1649   20.1218  162.9321 O   0  0  0  0  0  0  0  0  0  0  0  0
    8.1081   19.8917  161.9707 C   0  0  0  0  0  0  0  0  0  0  0  0
    8.3115   18.6431  161.4331 C   0  0  0  0  0  0  0  0  0  0  0  0
    9.5458   18.3270  160.8828 C   0  0  0  0  0  0  0  0  0  0  0  0
   10.4682   19.3290  160.6291 C   0  0  0  0  0  0  0  0  0  0  0  0
   11.5561   19.1829  159.1325 S   0  0  1  0  0  0  0  0  0  0  0  0
   10.7068   18.9938  157.7613 O   0  0  0  0  0  0  0  0  0  0  0  0
   12.4571   20.5620  159.0717 O   0  0  0  0  0  0  0  0  0  0  0  0
   12.5218   17.8297  159.3884 N   0  0  0  0  0  0  0  0  0  0  0  0
   12.9327   17.0164  158.2113 C   0  0  0  0  0  0  0  0  0  0  0  0
   14.3122   16.4390  158.3838 C   0  0  0  0  0  0  0  0  0  0  0  0
   14.4160   15.2125  158.3873 O   0  0  0  0  0  0  0  0  0  0  0  0
   13.1581   17.6731  160.6984 C   0  0  0  0  0  0  0  0  0  0  0  0
   13.8025   18.7751  161.2083 C   0  0  0  0  0  0  0  0  0  0  0  0
   14.9198   18.6001  162.0458 C   0  0  0  0  0  0  0  0  0  0  0  0
   15.2248   17.3572  162.4703 C   0  0  0  0  0  0  0  0  0  0  0  0
   14.4445   16.2546  162.1181 C   0  0  0  0  0  0  0  0  0  0  0  0
   13.3639   16.4226  161.2807 C   0  0  0  0  0  0  0  0  0  0  0  0
   12.5185   15.2096  160.8881 C   0  0  0  0  0  0  0  0  0  0  0  0
   11.5103   14.8033  161.9117 N   0  0  1  0  0  0  0  0  0  0  0  0
   11.9101   13.5531  162.4555 C   0  0  0  0  0  0  0  0  0  0  0  0
   11.6120   15.8336  162.9296 C   0  0  0  0  0  0  0  0  0  0  0  0
   10.9957   17.1278  162.5197 C   0  0  0  0  0  0  0  0  0  0  0  0
    9.8533   17.4368  163.4634 C   0  0  0  0  0  0  0  0  0  0  0  0
    9.7166   18.9315  163.7312 C   0  0  0  0  0  0  0  0  0  0  0  0
    9.9889   19.4486  164.9211 C   0  0  0  0  0  0  0  0  0  0  0  0
    9.6268   20.7600  165.2453 C   0  0  0  0  0  0  0  0  0  0  0  0
    9.1439   21.5982  164.2377 C   0  0  0  0  0  0  0  0  0  0  0  0
    9.1975   23.3411  164.4584 Cl  0  0  0  0  0  0  0  0  0  0  0  0
    8.7865   21.0235  163.0303 C   0  0  0  0  0  0  0  0  0  0  0  0
    9.2039   19.7240  162.7324 C   0  0  0  0  0  0  0  0  0  0  0  0
   10.2884   20.5725  161.2412 C   0  0  0  0  0  0  0  0  0  0  0  0
    9.0184   20.9037  161.7481 C   0  0  0  0  0  0  0  0  0  0  0  0
 21 22  1  1
 26 32  4  0
 32 31  4  0
 19 20  1  0
 20 21  1  0
 19 18  4  0
 14 19  4  0
 18 17  4  0
 16 17  4  0
 15 16  4  0
 14 15  4  0
 10 14  1  0
 11 12  1  0
 10 11  1  0
  6  5  4  0
  6 33  4  0
  7  6  1  0
 23 24  1  0
 21 23  1  0
  5  4  4  0
  4  3  4  0
 34  3  4  0
  3  2  1  0
 33 34  4  0
  2  1  1  0
 12 13  1  0
 24 25  1  0
 25 26  1  0
 26 27  4  0
 27 28  4  0
 28 29  4  0
 31 29  4  0
 29 30  1  0
  7 10  1  6
  7  8  2  0
  7  9  2  0
M  CHG  1  21   1
M  END
$$$$
