
     RDKit          3D

 24 25  0  0  0  0  0  0  0  0999 V2000
   27.8005   31.2049   37.0465 C   0  0  0  0  0  0  0  0  0  0  0  0
   27.0472   29.9579   36.9680 O   0  0  0  0  0  0  0  0  0  0  0  0
   27.8490   28.7730   37.0748 C   0  0  1  0  0  0  0  0  0  0  0  0
   29.2209   29.1383   37.3244 O   0  0  0  0  0  0  0  0  0  0  0  0
   29.5894   29.6938   38.5844 C   0  0  2  0  0  0  0  0  0  0  0  0
   31.1025   30.1784   38.7306 C   0  0  0  0  0  0  0  0  0  0  0  0
   31.7945   29.9625   37.5161 O   0  0  0  0  0  0  0  0  0  0  0  0
   29.2319   28.6698   39.7053 C   0  0  1  0  0  0  0  0  0  0  0  0
   29.5221   29.1578   41.0350 O   0  0  0  0  0  0  0  0  0  0  0  0
   27.7107   28.2761   39.5774 C   0  0  2  0  0  0  0  0  0  0  0  0
   27.2937   27.4326   40.6192 O   0  0  0  0  0  0  0  0  0  0  0  0
   27.3249   27.7551   38.1403 C   0  0  1  0  0  0  0  0  0  0  0  0
   25.5556   27.4717   38.1541 S   0  0  0  0  0  0  0  0  0  0  0  0
   25.2315   26.1378   36.9802 C   0  0  2  0  0  0  0  0  0  0  0  0
   24.4094   26.6459   35.9102 O   0  0  0  0  0  0  0  0  0  0  0  0
   24.2381   25.6738   34.8572 C   0  0  2  0  0  0  0  0  0  0  0  0
   23.6197   26.2734   33.6051 C   0  0  0  0  0  0  0  0  0  0  0  0
   22.9180   25.2568   32.8617 O   0  0  0  0  0  0  0  0  0  0  0  0
   23.3382   24.4941   35.3907 C   0  0  1  0  0  0  0  0  0  0  0  0
   23.1622   23.5746   34.2376 O   0  0  0  0  0  0  0  0  0  0  0  0
   23.9911   23.9678   36.7367 C   0  0  1  0  0  0  0  0  0  0  0  0
   25.1680   23.1875   36.4445 O   0  0  0  0  0  0  0  0  0  0  0  0
   24.4967   25.0305   37.7392 C   0  0  1  0  0  0  0  0  0  0  0  0
   25.3448   24.4162   38.8076 O   0  0  0  0  0  0  0  0  0  0  0  0
 23 24  1  1
 23 21  1  0
 23 14  1  0
 21 22  1  1
 21 19  1  0
 19 20  1  6
 19 16  1  0
 16 17  1  6
 16 15  1  0
 17 18  1  0
 15 14  1  0
 14 13  1  1
 12 13  1  1
 12  3  1  0
 12 10  1  0
  3  2  1  6
  3  4  1  0
  2  1  1  0
  4  5  1  0
 10 11  1  1
 10  8  1  0
  8  9  1  1
  8  5  1  0
  5  6  1  6
  6  7  1  0
M  END
$$$$
