
     RDKit          3D

 24 25  0  0  0  0  0  0  0  0999 V2000
   27.0780   36.5940   31.7950 C   0  0  0  0  0  0  0  0  0  0  0  0
   27.1410   35.3090   32.4320 O   0  0  0  0  0  0  0  0  0  0  0  0
   28.4160   34.9180   32.9750 C   0  0  2  0  0  0  0  0  0  0  0  0
   29.4350   34.9320   31.9270 O   0  0  0  0  0  0  0  0  0  0  0  0
   30.8350   34.7670   32.3260 C   0  0  2  0  0  0  0  0  0  0  0  0
   31.8850   34.9370   31.1650 C   0  0  0  0  0  0  0  0  0  0  0  0
   31.4370   35.8760   30.1740 O   0  0  0  0  0  0  0  0  0  0  0  0
   30.9380   33.3830   33.0120 C   0  0  1  0  0  0  0  0  0  0  0  0
   32.2750   33.0870   33.4640 O   0  0  0  0  0  0  0  0  0  0  0  0
   29.9200   33.2990   34.1750 C   0  0  2  0  0  0  0  0  0  0  0  0
   30.0980   32.0840   34.9430 O   0  0  0  0  0  0  0  0  0  0  0  0
   28.4480   33.5630   33.7620 C   0  0  1  0  0  0  0  0  0  0  0  0
   27.4780   33.5510   35.2640 S   0  0  0  0  0  0  0  0  0  0  0  0
   26.0420   32.4740   34.9450 C   0  0  2  0  0  0  0  0  0  0  0  0
   26.4790   31.1070   34.9300 O   0  0  0  0  0  0  0  0  0  0  0  0
   25.3850   30.1680   34.8390 C   0  0  2  0  0  0  0  0  0  0  0  0
   25.8110   28.7500   35.1160 C   0  0  0  0  0  0  0  0  0  0  0  0
   26.3050   28.6830   36.5050 O   0  0  0  0  0  0  0  0  0  0  0  0
   24.7160   30.3180   33.4390 C   0  0  1  0  0  0  0  0  0  0  0  0
   23.6380   29.2880   33.3990 O   0  0  0  0  0  0  0  0  0  0  0  0
   24.3390   31.8190   33.2250 C   0  0  2  0  0  0  0  0  0  0  0  0
   24.0530   32.1130   31.8400 O   0  0  0  0  0  0  0  0  0  0  0  0
   25.4540   32.8600   33.5930 C   0  0  1  0  0  0  0  0  0  0  0  0
   24.9210   34.2420   33.6190 O   0  0  0  0  0  0  0  0  0  0  0  0
 23 24  1  1
 23 21  1  0
 23 14  1  0
 21 22  1  6
 21 19  1  0
 19 20  1  1
 19 16  1  0
 16 17  1  6
 16 15  1  0
 17 18  1  0
 15 14  1  0
 14 13  1  6
 12 13  1  1
 12  3  1  0
 12 10  1  0
  3  2  1  6
  3  4  1  0
  2  1  1  0
  4  5  1  0
 10 11  1  6
 10  8  1  0
  8  9  1  1
  8  5  1  0
  5  6  1  6
  6  7  1  0
M  END
$$$$
