
     RDKit          3D

 17 18  0  0  0  0  0  0  0  0999 V2000
   -6.7637    5.8360   -2.0860 C   0  0  0  0  0  0  0  0  0  0  0  0
   -6.7349    5.9357   -0.5484 C   0  0  0  0  0  0  0  0  0  0  0  0
   -5.3497    5.8464   -0.0501 C   0  0  0  0  0  0  0  0  0  0  0  0
   -5.1470    5.7268    1.1538 O   0  0  0  0  0  0  0  0  0  0  0  0
   -4.3590    6.2104   -0.9822 N   0  0  0  0  0  0  0  0  0  0  0  0
   -3.6825    7.4367   -0.9970 C   0  0  0  0  0  0  0  0  0  0  0  0
   -2.3812    7.5359   -1.0393 N   0  0  0  0  0  0  0  0  0  0  0  0
   -1.9721    8.9162   -1.2042 C   0  0  0  0  0  0  0  0  0  0  0  0
   -0.6156    9.1875   -1.7333 C   0  0  0  0  0  0  0  0  0  0  0  0
   -0.4128    9.3336   -3.1318 C   0  0  0  0  0  0  0  0  0  0  0  0
    0.8913    9.4032   -3.5996 C   0  0  0  0  0  0  0  0  0  0  0  0
    1.9793    9.3784   -2.7068 C   0  0  0  0  0  0  0  0  0  0  0  0
    3.5780    9.4248   -3.2483 Cl  0  0  0  0  0  0  0  0  0  0  0  0
    1.7835    9.3599   -1.3016 C   0  0  0  0  0  0  0  0  0  0  0  0
    0.4803    9.2685   -0.8478 C   0  0  0  0  0  0  0  0  0  0  0  0
   -2.9877    9.7969   -0.9747 C   0  0  0  0  0  0  0  0  0  0  0  0
   -4.5342    9.0081   -0.9104 S   0  0  0  0  0  0  0  0  0  0  0  0
  3  2  1  0
  2  1  1  0
  5  6  1  0
  6 17  4  0
  6  7  4  0
  8 16  4  0
  7  8  4  0
  8  9  1  0
 17 16  4  0
  3  4  2  0
  3  5  1  0
  9 10  4  0
  9 15  4  0
 10 11  4  0
 11 12  4  0
 12 13  1  0
 12 14  4  0
 14 15  4  0
M  END
$$$$
