
     RDKit          3D

 16 17  0  0  0  0  0  0  0  0999 V2000
   26.5800    1.3410    9.5700 C   0  0  0  0  0  0  0  0  0  0  0  0
   25.9750    2.7010    9.3290 C   0  0  0  0  0  0  0  0  0  0  0  0
   25.9560    3.5380   10.5850 C   0  0  0  0  0  0  0  0  0  0  0  0
   26.8160    3.4390   11.4420 O   0  0  0  0  0  0  0  0  0  0  0  0
   24.9000    4.4210   10.7320 N   0  0  0  0  0  0  0  0  0  0  0  0
   24.9280    5.5040   11.5790 C   0  0  0  0  0  0  0  0  0  0  0  0
   24.4350    6.6500   11.2010 N   0  0  0  0  0  0  0  0  0  0  0  0
   24.2970    7.4900   12.2990 C   0  0  0  0  0  0  0  0  0  0  0  0
   23.6110    8.7830   12.1160 C   0  0  0  0  0  0  0  0  0  0  0  0
   22.9060    9.0540   10.9410 C   0  0  0  0  0  0  0  0  0  0  0  0
   22.2370   10.2570   10.7850 C   0  0  0  0  0  0  0  0  0  0  0  0
   22.2530   11.2010   11.7920 C   0  0  0  0  0  0  0  0  0  0  0  0
   22.9350   10.9420   12.9630 C   0  0  0  0  0  0  0  0  0  0  0  0
   23.6220    9.7490   13.1250 C   0  0  0  0  0  0  0  0  0  0  0  0
   24.7480    6.9630   13.4690 C   0  0  0  0  0  0  0  0  0  0  0  0
   25.3480    5.3670   13.2550 S   0  0  0  0  0  0  0  0  0  0  0  0
  7  6  2  0
  8  7  1  0
  2  1  1  0
 11 12  2  0
 10 11  1  0
  9 14  1  0
 14 13  2  0
  5  3  1  0
  6  5  1  0
  3  2  1  0
  3  4  2  0
 16  6  1  0
 15 16  1  0
  8 15  2  0
  9  8  1  0
  9 10  2  0
 13 12  1  0
M  END
$$$$
