
     RDKit          3D

 16 17  0  0  0  0  0  0  0  0999 V2000
   26.7541    3.2679    9.6156 C   0  0  0  0  0  0  0  0  0  0  0  0
   25.5414    2.3532    9.1080 C   0  0  0  0  0  0  0  0  0  0  0  0
   24.2497    2.9621    9.6332 C   0  0  0  0  0  0  0  0  0  0  0  0
   23.3190    3.0098    8.8369 O   0  0  0  0  0  0  0  0  0  0  0  0
   23.9712    2.8711   10.9925 N   0  0  0  0  0  0  0  0  0  0  0  0
   23.7599    3.9787   11.7793 C   0  0  0  0  0  0  0  0  0  0  0  0
   23.7757    3.9145   13.0653 N   0  0  0  0  0  0  0  0  0  0  0  0
   23.6394    5.1540   13.6174 C   0  0  0  0  0  0  0  0  0  0  0  0
   23.3135    5.2820   15.0646 C   0  0  0  0  0  0  0  0  0  0  0  0
   22.4629    4.3127   15.6237 C   0  0  0  0  0  0  0  0  0  0  0  0
   22.1121    4.4183   16.9638 C   0  0  0  0  0  0  0  0  0  0  0  0
   22.6145    5.4486   17.7531 C   0  0  0  0  0  0  0  0  0  0  0  0
   23.4272    6.4275   17.1725 C   0  0  0  0  0  0  0  0  0  0  0  0
   23.7394    6.3186   15.8059 C   0  0  0  0  0  0  0  0  0  0  0  0
   23.7289    6.1874   12.7114 C   0  0  0  0  0  0  0  0  0  0  0  0
   23.7445    5.5903   11.0940 S   0  0  0  0  0  0  0  0  0  0  0  0
  7  6  4  0
  8  7  4  0
  2  1  1  0
 11 12  4  0
 10 11  4  0
  9 14  4  0
 14 13  4  0
  5  3  1  0
  6  5  1  0
  3  2  1  0
  3  4  2  0
 16  6  4  0
 15 16  4  0
  8 15  4  0
  9  8  1  0
  9 10  4  0
 13 12  4  0
M  END
$$$$
