
     RDKit          3D

 67 68  0  0  0  0  0  0  0  0999 V2000
  160.9827   19.2749  210.6106 C   0  0  0  0  0  0  0  0  0  0  0  0
  160.2225   20.5427  210.3720 C   0  0  0  0  0  0  0  0  0  0  0  0
  159.7572   20.6763  208.9328 C   0  0  0  0  0  0  0  0  0  0  0  0
  159.7756   22.1580  208.5441 C   0  0  0  0  0  0  0  0  0  0  0  0
  159.7239   22.2933  206.9475 C   0  0  0  0  0  0  0  0  0  0  0  0
  159.7719   23.7687  206.5160 C   0  0  0  0  0  0  0  0  0  0  0  0
  159.8577   23.9154  205.0008 C   0  0  0  0  0  0  0  0  0  0  0  0
  159.6707   25.4130  204.5769 C   0  0  0  0  0  0  0  0  0  0  0  0
  160.0298   25.5309  203.1047 C   0  0  0  0  0  0  0  0  0  0  0  0
  158.9997   26.4107  202.4639 C   0  0  0  0  0  0  0  0  0  0  0  0
  159.6328   27.5853  201.6775 C   0  0  0  0  0  0  0  0  0  0  0  0
  159.3065   27.4775  200.1630 C   0  0  0  0  0  0  0  0  0  0  0  0
  159.0759   28.8515  199.5538 C   0  0  0  0  0  0  0  0  0  0  0  0
  160.3819   29.3390  198.9231 C   0  0  0  0  0  0  0  0  0  0  0  0
  161.3385   28.1629  198.6651 C   0  0  0  0  0  0  0  0  0  0  0  0
  162.3450   28.0125  199.8072 C   0  0  0  0  0  0  0  0  0  0  0  0
  162.3453   26.5968  200.3838 C   0  0  0  0  0  0  0  0  0  0  0  0
  163.5608   26.3410  201.2731 C   0  0  0  0  0  0  0  0  0  0  0  0
  163.1544   26.3668  202.7318 C   0  0  0  0  0  0  0  0  0  0  0  0
  163.9493   25.2687  203.4942 C   0  0  0  0  0  0  0  0  0  0  0  0
  164.1652   25.7133  204.9806 C   0  0  0  0  0  0  0  0  0  0  0  0
  165.6823   25.6577  205.2420 C   0  0  0  0  0  0  0  0  0  0  0  0
  166.0095   26.1411  206.6374 C   0  0  0  0  0  0  0  0  0  0  0  0
  167.2313   25.3867  207.1420 C   0  0  0  0  0  0  0  0  0  0  0  0
  168.4905   26.2925  207.2118 C   0  0  0  0  0  0  0  0  0  0  0  0
  168.1050   27.7331  207.4881 C   0  0  0  0  0  0  0  0  0  0  0  0
  168.0599   28.1788  208.6539 O   0  0  0  0  0  0  0  0  0  0  0  0
  168.1452   28.5371  206.4028 N   0  0  0  0  0  0  0  0  0  0  0  0
  167.8488   30.0363  206.5132 C   0  0  1  0  0  0  0  0  0  0  0  0
  168.8664   30.5675  207.5535 C   0  0  0  0  0  0  0  0  0  0  0  0
  170.1803   30.0494  207.1906 O   0  0  0  0  0  0  0  0  0  0  0  0
  171.2098   30.8747  207.6765 C   0  0  1  0  0  0  0  0  0  0  0  0
  171.2757   31.0754  209.0981 O   0  0  0  0  0  0  0  0  0  0  0  0
  171.3319   29.8676  209.8633 C   0  0  2  0  0  0  0  0  0  0  0  0
  171.1778   30.3207  211.3401 C   0  0  0  0  0  0  0  0  0  0  0  0
  171.2849   29.1735  212.1973 O   0  0  0  0  0  0  0  0  0  0  0  0
  172.5911   29.0664  209.4736 C   0  0  1  0  0  0  0  0  0  0  0  0
  172.6082   27.7240  210.0886 O   0  0  0  0  0  0  0  0  0  0  0  0
  171.4490   27.3958  210.9022 C   0  0  0  0  0  0  0  0  0  0  0  0
  171.2085   26.0455  211.0096 C   0  0  0  0  0  0  0  0  0  0  0  0
  172.2702   25.1186  211.0388 C   0  0  0  0  0  0  0  0  0  0  0  0
  172.0156   23.7425  211.0285 C   0  0  0  0  0  0  0  0  0  0  0  0
  170.6895   23.2678  211.0455 C   0  0  0  0  0  0  0  0  0  0  0  0
  169.6559   24.2051  211.0274 C   0  0  0  0  0  0  0  0  0  0  0  0
  169.9017   25.5585  211.0109 C   0  0  0  0  0  0  0  0  0  0  0  0
  172.7280   28.9479  208.0134 C   0  0  2  0  0  0  0  0  0  0  0  0
  174.0067   28.4534  207.6557 O   0  0  0  0  0  0  0  0  0  0  0  0
  172.5090   30.2620  207.2741 C   0  0  2  0  0  0  0  0  0  0  0  0
  173.6136   31.1975  207.6546 O   0  0  0  0  0  0  0  0  0  0  0  0
  168.0986   30.7177  205.1557 C   0  0  2  0  0  0  0  0  0  0  0  0
  167.7473   32.0949  205.2178 O   0  0  0  0  0  0  0  0  0  0  0  0
  167.2973   30.0843  204.0145 C   0  0  2  0  0  0  0  0  0  0  0  0
  167.7911   30.6442  202.7870 O   0  0  0  0  0  0  0  0  0  0  0  0
  165.7891   30.3235  204.1454 C   0  0  0  0  0  0  0  0  0  0  0  0
  164.9528   29.3055  203.4041 C   0  0  0  0  0  0  0  0  0  0  0  0
  165.6335   27.9491  203.3469 C   0  0  0  0  0  0  0  0  0  0  0  0
  165.4500   27.2869  201.9783 C   0  0  0  0  0  0  0  0  0  0  0  0
  164.0555   27.5880  201.3694 C   0  0  0  0  0  0  0  0  0  0  0  0
  162.9782   27.6933  202.5249 C   0  0  0  0  0  0  0  0  0  0  0  0
  161.5425   27.6080  201.8888 C   0  0  0  0  0  0  0  0  0  0  0  0
  161.1590   26.1971  201.6512 C   0  0  0  0  0  0  0  0  0  0  0  0
  161.9322   25.2469  202.4523 C   0  0  0  0  0  0  0  0  0  0  0  0
  161.1942   24.5780  203.5752 C   0  0  0  0  0  0  0  0  0  0  0  0
  162.0206   23.8021  204.5392 C   0  0  0  0  0  0  0  0  0  0  0  0
  161.3550   23.5791  205.9050 C   0  0  0  0  0  0  0  0  0  0  0  0
  161.4910   22.1956  206.3775 C   0  0  0  0  0  0  0  0  0  0  0  0
  161.5301   22.1663  207.9607 C   0  0  0  0  0  0  0  0  0  0  0  0
 34 37  1  0
 34 35  1  1
 33 34  1  0
 46 37  1  0
 37 38  1  6
 48 46  1  0
 46 47  1  1
 32 48  1  0
 48 49  1  6
 32 31  1  1
 32 33  1  0
 35 36  1  0
 66 67  1  0
 65 66  1  0
 64 65  1  0
 63 64  1  0
 62 63  1  0
 61 62  1  0
 60 61  1  0
 59 60  1  0
 58 59  1  0
 57 58  1  0
 56 57  1  0
 55 56  1  0
 54 55  1  0
 52 54  1  0
 52 53  1  6
 50 52  1  0
 50 51  1  1
 29 50  1  0
 29 30  1  1
 29 28  1  0
 30 31  1  0
 38 39  1  0
 39 40  1  0
 40 41  4  0
 40 45  4  0
 41 42  4  0
 42 43  4  0
 43 44  4  0
 44 45  4  0
 28 26  1  0
 26 27  2  0
 26 25  1  0
 25 24  1  0
 24 23  1  0
 23 22  1  0
 22 21  1  0
 21 20  1  0
 20 19  1  0
 19 18  1  0
 18 17  1  0
 17 16  1  0
 16 15  1  0
 15 14  1  0
 14 13  1  0
 13 12  1  0
 12 11  1  0
 11 10  1  0
 10  9  1  0
  9  8  1  0
  8  7  1  0
  7  6  1  0
  6  5  1  0
  5  4  1  0
  4  3  1  0
  3  2  1  0
  2  1  1  0
M  END
$$$$
