
     RDKit          3D

 63 63  0  0  0  0  0  0  0  0999 V2000
   -7.6824  -14.8729   23.8376 C   0  0  0  0  0  0  0  0  0  0  0  0
   -6.7054  -15.7591   24.7352 C   0  0  0  0  0  0  0  0  0  0  0  0
   -5.4599  -15.9950   23.9303 C   0  0  0  0  0  0  0  0  0  0  0  0
   -5.4361  -17.5347   23.6406 C   0  0  0  0  0  0  0  0  0  0  0  0
   -5.4814  -17.7598   22.1228 C   0  0  0  0  0  0  0  0  0  0  0  0
   -5.1767  -19.1796   21.7140 C   0  0  0  0  0  0  0  0  0  0  0  0
   -4.6247  -19.3457   20.2839 C   0  0  0  0  0  0  0  0  0  0  0  0
   -4.8557  -20.8041   19.8137 C   0  0  0  0  0  0  0  0  0  0  0  0
   -4.9793  -20.8822   18.2877 C   0  0  0  0  0  0  0  0  0  0  0  0
   -4.6208  -22.3188   17.8186 C   0  0  0  0  0  0  0  0  0  0  0  0
   -4.2066  -22.3046   16.3176 C   0  0  0  0  0  0  0  0  0  0  0  0
   -4.4025  -23.6964   15.7135 C   0  0  0  0  0  0  0  0  0  0  0  0
   -4.2862  -23.6887   14.2210 C   0  0  0  0  0  0  0  0  0  0  0  0
   -4.3476  -25.0961   13.6436 C   0  0  0  0  0  0  0  0  0  0  0  0
   -5.8122  -25.4719   13.3300 C   0  0  0  0  0  0  0  0  0  0  0  0
   -6.7020  -25.0099   14.4809 C   0  0  0  0  0  0  0  0  0  0  0  0
   -7.5558  -23.7797   14.1099 C   0  0  0  0  0  0  0  0  0  0  0  0
   -7.5013  -22.6493   15.1599 C   0  0  0  0  0  0  0  0  0  0  0  0
   -8.3309  -23.0818   16.3726 C   0  0  0  0  0  0  0  0  0  0  0  0
   -9.1027  -21.9186   16.8724 C   0  0  0  0  0  0  0  0  0  0  0  0
   -9.4962  -22.0953   18.3743 C   0  0  0  0  0  0  0  0  0  0  0  0
  -10.9590  -22.1706   18.4977 C   0  0  0  0  0  0  0  0  0  0  0  0
  -11.4515  -23.6397   18.6072 C   0  0  0  0  0  0  0  0  0  0  0  0
  -12.7138  -23.6193   19.4675 C   0  0  0  0  0  0  0  0  0  0  0  0
  -13.7954  -24.5567   18.8568 C   0  0  0  0  0  0  0  0  0  0  0  0
  -13.7053  -25.9738   19.4939 C   0  0  0  0  0  0  0  0  0  0  0  0
  -13.7789  -26.1240   20.7199 O   0  0  0  0  0  0  0  0  0  0  0  0
  -13.8829  -26.9488   18.6234 N   0  0  0  0  0  0  0  0  0  0  0  0
  -13.4171  -28.3093   18.9316 C   0  0  1  0  0  0  0  0  0  0  0  0
  -14.3583  -28.8783   20.0005 C   0  0  0  0  0  0  0  0  0  0  0  0
  -15.2241  -29.7851   19.3392 O   0  0  0  0  0  0  0  0  0  0  0  0
  -16.5118  -29.8243   19.9164 C   0  0  1  0  0  0  0  0  0  0  0  0
  -16.5355  -29.1516   21.1992 O   0  0  0  0  0  0  0  0  0  0  0  0
  -16.4026  -27.7854   21.2916 C   0  0  2  0  0  0  0  0  0  0  0  0
  -17.5065  -27.3062   22.2873 C   0  0  0  0  0  0  0  0  0  0  0  0
  -17.0298  -27.4495   23.6301 O   0  0  0  0  0  0  0  0  0  0  0  0
  -16.4392  -27.0522   19.9188 C   0  0  1  0  0  0  0  0  0  0  0  0
  -15.1376  -26.9145   19.3196 O   0  0  0  0  0  0  0  0  0  0  0  0
  -15.1619  -26.8438   17.9256 C   0  0  0  0  0  0  0  0  0  0  0  0
  -13.7172  -26.8241   17.3906 C   0  0  0  0  0  0  0  0  0  0  0  0
  -13.7419  -26.7776   15.8406 C   0  0  0  0  0  0  0  0  0  0  0  0
  -17.3754  -27.6311   18.9342 C   0  0  1  0  0  0  0  0  0  0  0  0
  -17.2131  -27.1306   17.6715 O   0  0  0  0  0  0  0  0  0  0  0  0
  -17.4768  -29.1460   18.9764 C   0  0  1  0  0  0  0  0  0  0  0  0
  -17.3002  -29.6780   17.6688 O   0  0  0  0  0  0  0  0  0  0  0  0
  -13.4342  -29.1864   17.7135 C   0  0  1  0  0  0  0  0  0  0  0  0
  -14.7852  -29.6727   17.5514 O   0  0  0  0  0  0  0  0  0  0  0  0
  -12.9870  -28.4936   16.4349 C   0  0  2  0  0  0  0  0  0  0  0  0
  -13.3320  -29.2956   15.3044 O   0  0  0  0  0  0  0  0  0  0  0  0
  -11.4730  -28.2328   16.4932 C   0  0  0  0  0  0  0  0  0  0  0  0
  -11.0062  -27.3741   15.2942 C   0  0  0  0  0  0  0  0  0  0  0  0
  -11.1126  -25.8532   15.6280 C   0  0  0  0  0  0  0  0  0  0  0  0
  -10.4310  -25.0147   14.4614 C   0  0  0  0  0  0  0  0  0  0  0  0
   -8.8968  -25.1791   14.4988 C   0  0  0  0  0  0  0  0  0  0  0  0
   -8.3260  -24.4640   13.2821 C   0  0  0  0  0  0  0  0  0  0  0  0
   -8.7017  -25.2495   12.0139 C   0  0  0  0  0  0  0  0  0  0  0  0
   -7.9082  -24.6724   10.7719 C   0  0  0  0  0  0  0  0  0  0  0  0
   -6.7264  -25.6101   10.5122 C   0  0  0  0  0  0  0  0  0  0  0  0
   -7.0611  -26.9717   11.1235 C   0  0  0  0  0  0  0  0  0  0  0  0
   -7.0758  -28.0350   10.0200 C   0  0  0  0  0  0  0  0  0  0  0  0
   -5.7720  -28.0359    9.1799 C   0  0  0  0  0  0  0  0  0  0  0  0
   -5.1672  -29.4216    9.1291 C   0  0  0  0  0  0  0  0  0  0  0  0
   -5.2812  -30.0685   10.5319 C   0  0  0  0  0  0  0  0  0  0  0  0
 44 42  1  0
 32 44  1  0
 44 45  1  6
 42 37  1  0
 42 43  1  1
 34 37  1  0
 37 38  1  1
 33 34  1  0
 34 35  1  1
 32 31  1  6
 32 33  1  0
 62 63  1  0
 61 62  1  0
 60 61  1  0
 59 60  1  0
 58 59  1  0
 57 58  1  0
 56 57  1  0
 55 56  1  0
 54 55  1  0
 53 54  1  0
 52 53  1  0
 51 52  1  0
 50 51  1  0
 48 50  1  0
 48 49  1  6
 46 48  1  0
 46 47  1  1
 29 46  1  0
 29 30  1  1
 29 28  1  0
 30 31  1  0
 35 36  1  0
 38 39  1  0
 39 40  1  0
 40 41  1  0
 28 26  1  0
 26 27  2  0
 26 25  1  0
 25 24  1  0
 24 23  1  0
 23 22  1  0
 22 21  1  0
 21 20  1  0
 20 19  1  0
 19 18  1  0
 18 17  1  0
 17 16  1  0
 16 15  1  0
 15 14  1  0
 14 13  1  0
 13 12  1  0
 12 11  1  0
 11 10  1  0
 10  9  1  0
  9  8  1  0
  8  7  1  0
  7  6  1  0
  6  5  1  0
  5  4  1  0
  4  3  1  0
  3  2  1  0
  2  1  1  0
M  END
$$$$
