
     RDKit          3D

 68 69  0  0  0  0  0  0  0  0999 V2000
   -5.8057  -31.7823    8.3671 C   0  0  0  0  0  0  0  0  0  0  0  0
   -5.3351  -32.9456    7.5828 C   0  0  0  0  0  0  0  0  0  0  0  0
   -5.0403  -32.5825    6.1540 C   0  0  0  0  0  0  0  0  0  0  0  0
   -3.4901  -32.4442    5.9620 C   0  0  0  0  0  0  0  0  0  0  0  0
   -3.1577  -31.0949    5.3159 C   0  0  0  0  0  0  0  0  0  0  0  0
   -3.2567  -29.9684    6.3797 C   0  0  0  0  0  0  0  0  0  0  0  0
   -3.0979  -30.5420    7.7956 C   0  0  0  0  0  0  0  0  0  0  0  0
   -3.0786  -29.4038    8.8150 C   0  0  0  0  0  0  0  0  0  0  0  0
   -4.3772  -29.4200    9.6149 C   0  0  0  0  0  0  0  0  0  0  0  0
   -5.6055  -29.3433    8.6634 C   0  0  0  0  0  0  0  0  0  0  0  0
   -6.8701  -28.9643    9.4581 C   0  0  0  0  0  0  0  0  0  0  0  0
   -6.4447  -28.2907   10.7753 C   0  0  0  0  0  0  0  0  0  0  0  0
   -7.3347  -27.0975   11.0094 C   0  0  0  0  0  0  0  0  0  0  0  0
   -6.4731  -25.8489   11.2151 C   0  0  0  0  0  0  0  0  0  0  0  0
   -7.1889  -24.9581   12.2241 C   0  0  0  0  0  0  0  0  0  0  0  0
   -6.1682  -24.1228   12.9885 C   0  0  0  0  0  0  0  0  0  0  0  0
   -6.6913  -23.8736   14.4144 C   0  0  0  0  0  0  0  0  0  0  0  0
   -7.5637  -22.6251   14.4805 C   0  0  0  0  0  0  0  0  0  0  0  0
   -7.9926  -22.3719   15.8997 C   0  0  0  0  0  0  0  0  0  0  0  0
   -9.5066  -22.2083   15.9774 C   0  0  0  0  0  0  0  0  0  0  0  0
   -9.9259  -21.8840   17.4101 C   0  0  0  0  0  0  0  0  0  0  0  0
  -10.6366  -23.0654   18.0492 C   0  0  0  0  0  0  0  0  0  0  0  0
  -11.9272  -22.5685   18.7975 C   0  0  0  0  0  0  0  0  0  0  0  0
  -12.2791  -23.5810   19.8327 C   0  0  0  0  0  0  0  0  0  0  0  0
  -13.6586  -24.1876   19.4385 C   0  0  0  0  0  0  0  0  0  0  0  0
  -13.5736  -25.7208   19.4437 C   0  0  0  0  0  0  0  0  0  0  0  0
  -13.6450  -26.3910   20.4985 O   0  0  0  0  0  0  0  0  0  0  0  0
  -13.7020  -26.2449   18.2342 N   0  0  0  0  0  0  0  0  0  0  0  0
  -14.0314  -27.6948   18.0418 C   0  0  2  0  0  0  0  0  0  0  0  0
  -14.6836  -28.2186   19.3491 C   0  0  0  0  0  0  0  0  0  0  0  0
  -15.5217  -29.2557   19.0485 O   0  0  0  0  0  0  0  0  0  0  0  0
  -16.6885  -29.4069   19.8530 C   0  0  1  0  0  0  0  0  0  0  0  0
  -16.3663  -29.1537   21.2607 O   0  0  0  0  0  0  0  0  0  0  0  0
  -16.2205  -27.8423   21.7060 C   0  0  2  0  0  0  0  0  0  0  0  0
  -15.9897  -27.8317   23.2412 C   0  0  0  0  0  0  0  0  0  0  0  0
  -16.0781  -26.4711   23.7838 O   0  0  0  0  0  0  0  0  0  0  0  0
  -17.3604  -26.8945   21.2164 C   0  0  1  0  0  0  0  0  0  0  0  0
  -17.1371  -25.5048   21.5032 O   0  0  0  0  0  0  0  0  0  0  0  0
  -16.5865  -25.2595   22.8438 C   0  0  0  0  0  0  0  0  0  0  0  0
  -16.4175  -23.8840   23.1119 C   0  0  0  0  0  0  0  0  0  0  0  0
  -15.1884  -23.2910   22.7961 C   0  0  0  0  0  0  0  0  0  0  0  0
  -14.9196  -21.9827   23.1800 C   0  0  0  0  0  0  0  0  0  0  0  0
  -15.9100  -21.2308   23.7877 C   0  0  0  0  0  0  0  0  0  0  0  0
  -15.7823  -19.8333   23.9218 C   0  0  0  0  0  0  0  0  0  0  0  0
  -17.1340  -21.8203   24.1437 C   0  0  0  0  0  0  0  0  0  0  0  0
  -17.4168  -23.1362   23.7720 C   0  0  0  0  0  0  0  0  0  0  0  0
  -17.5480  -27.0709   19.7148 C   0  0  2  0  0  0  0  0  0  0  0  0
  -18.6805  -26.2810   19.3031 O   0  0  0  0  0  0  0  0  0  0  0  0
  -17.8096  -28.5315   19.3944 C   0  0  2  0  0  0  0  0  0  0  0  0
  -19.0460  -28.9621   19.9214 O   0  0  0  0  0  0  0  0  0  0  0  0
  -12.8312  -28.5214   17.6842 C   0  0  1  0  0  0  0  0  0  0  0  0
  -13.2085  -29.8652   17.7621 O   0  0  0  0  0  0  0  0  0  0  0  0
  -12.2471  -28.1291   16.3187 C   0  0  2  0  0  0  0  0  0  0  0  0
  -12.6331  -29.1808   15.3726 O   0  0  0  0  0  0  0  0  0  0  0  0
  -10.6664  -28.0142   16.4008 C   0  0  0  0  0  0  0  0  0  0  0  0
  -10.1782  -27.0911   15.2495 C   0  0  0  0  0  0  0  0  0  0  0  0
  -10.1430  -25.6457   15.7170 C   0  0  0  0  0  0  0  0  0  0  0  0
   -9.4732  -24.7422   14.6527 C   0  0  0  0  0  0  0  0  0  0  0  0
   -7.9454  -24.6899   14.7980 C   0  0  0  0  0  0  0  0  0  0  0  0
   -7.6087  -24.1023   16.1933 C   0  0  0  0  0  0  0  0  0  0  0  0
   -6.5205  -23.0389   16.0573 C   0  0  0  0  0  0  0  0  0  0  0  0
   -5.8611  -22.8574   17.4298 C   0  0  0  0  0  0  0  0  0  0  0  0
   -6.3083  -21.5746   18.1253 C   0  0  0  0  0  0  0  0  0  0  0  0
   -5.6112  -21.4303   19.4696 C   0  0  0  0  0  0  0  0  0  0  0  0
   -5.3322  -19.9949   19.7553 C   0  0  0  0  0  0  0  0  0  0  0  0
   -5.4043  -19.8003   21.2598 C   0  0  0  0  0  0  0  0  0  0  0  0
   -5.3096  -18.2086   21.5959 C   0  0  0  0  0  0  0  0  0  0  0  0
   -5.3539  -18.0508   23.1267 C   0  0  0  0  0  0  0  0  0  0  0  0
 30 31  1  0
 32 31  1  6
 34 33  1  0
 34 35  1  1
 37 34  1  0
 37 38  1  1
 38 39  1  0
 49 47  1  0
 47 48  1  1
 47 37  1  0
 32 49  1  0
 49 50  1  6
 67 68  1  0
 66 67  1  0
 65 66  1  0
 64 65  1  0
 63 64  1  0
 62 63  1  0
 61 62  1  0
 60 61  1  0
 59 60  1  0
 58 59  1  0
 57 58  1  0
 56 57  1  0
 55 56  1  0
 53 55  1  0
 53 54  1  6
 51 53  1  0
 51 52  1  1
 29 51  1  0
 29 30  1  6
 29 28  1  0
 32 33  1  0
 35 36  1  0
 39 40  1  0
 40 41  4  0
 40 46  4  0
 41 42  4  0
 42 43  4  0
 43 44  1  0
 43 45  4  0
 45 46  4  0
 28 26  1  0
 26 27  2  0
 26 25  1  0
 25 24  1  0
 24 23  1  0
 23 22  1  0
 22 21  1  0
 21 20  1  0
 20 19  1  0
 19 18  1  0
 18 17  1  0
 17 16  1  0
 16 15  1  0
 15 14  1  0
 14 13  1  0
 13 12  1  0
 12 11  1  0
 11 10  1  0
 10  9  1  0
  9  8  1  0
  8  7  1  0
  7  6  1  0
  6  5  1  0
  5  4  1  0
  4  3  1  0
  3  2  1  0
  2  1  1  0
M  END
$$$$
