
     RDKit          3D

 68 69  0  0  0  0  0  0  0  0999 V2000
   -7.9910  -16.0080   19.1860 C   0  0  0  0  0  0  0  0  0  0  0  0
   -7.3460  -15.0200   20.1630 C   0  0  0  0  0  0  0  0  0  0  0  0
   -8.3960  -14.5350   21.1630 C   0  0  0  0  0  0  0  0  0  0  0  0
   -7.7140  -13.8270   22.3360 C   0  0  0  0  0  0  0  0  0  0  0  0
   -8.0880  -14.5410   23.6410 C   0  0  0  0  0  0  0  0  0  0  0  0
   -7.1440  -14.1470   24.7850 C   0  0  0  0  0  0  0  0  0  0  0  0
   -5.7640  -14.7850   24.5900 C   0  0  0  0  0  0  0  0  0  0  0  0
   -5.3060  -15.4550   25.8870 C   0  0  0  0  0  0  0  0  0  0  0  0
   -4.0910  -16.3460   25.6110 C   0  0  0  0  0  0  0  0  0  0  0  0
   -4.5430  -17.6810   25.0090 C   0  0  0  0  0  0  0  0  0  0  0  0
   -3.3820  -18.6770   25.0240 C   0  0  0  0  0  0  0  0  0  0  0  0
   -3.7420  -19.8890   24.1660 C   0  0  0  0  0  0  0  0  0  0  0  0
   -3.0340  -19.7770   22.8160 C   0  0  0  0  0  0  0  0  0  0  0  0
   -3.6730  -20.7420   21.8180 C   0  0  0  0  0  0  0  0  0  0  0  0
   -3.4210  -20.2200   20.4030 C   0  0  0  0  0  0  0  0  0  0  0  0
   -4.4290  -20.8340   19.4340 C   0  0  0  0  0  0  0  0  0  0  0  0
   -5.7170  -20.0090   19.4450 C   0  0  0  0  0  0  0  0  0  0  0  0
   -6.4490  -20.1430   18.1030 C   0  0  0  0  0  0  0  0  0  0  0  0
   -7.4490  -21.3000   18.1700 C   0  0  0  0  0  0  0  0  0  0  0  0
   -8.8690  -20.7530   18.2910 C   0  0  0  0  0  0  0  0  0  0  0  0
   -9.8580  -21.8890   18.0140 C   0  0  0  0  0  0  0  0  0  0  0  0
  -10.7530  -22.0910   19.2390 C   0  0  0  0  0  0  0  0  0  0  0  0
  -11.9280  -22.9900   18.8530 C   0  0  0  0  0  0  0  0  0  0  0  0
  -12.9070  -23.0620   20.0240 C   0  0  0  0  0  0  0  0  0  0  0  0
  -13.9840  -24.1110   19.7300 C   0  0  0  0  0  0  0  0  0  0  0  0
  -13.4560  -25.5330   19.9780 C   0  0  0  0  0  0  0  0  0  0  0  0
  -12.7990  -25.8130   20.9820 O   0  0  0  0  0  0  0  0  0  0  0  0
  -13.7710  -26.4210   19.0260 N   0  0  0  0  0  0  0  0  0  0  0  0
  -13.3520  -27.8270   19.1320 C   0  0  1  0  0  0  0  0  0  0  0  0
  -14.3510  -28.5790   20.0240 C   0  0  0  0  0  0  0  0  0  0  0  0
  -15.6450  -28.4420   19.4330 O   0  0  0  0  0  0  0  0  0  0  0  0
  -16.7040  -29.0170   20.1870 C   0  0  1  0  0  0  0  0  0  0  0  0
  -16.8550  -28.3560   21.4700 O   0  0  0  0  0  0  0  0  0  0  0  0
  -17.2560  -26.9580   21.4320 C   0  0  2  0  0  0  0  0  0  0  0  0
  -17.4320  -26.4780   22.8840 C   0  0  0  0  0  0  0  0  0  0  0  0
  -17.3720  -25.0470   22.9390 O   0  0  0  0  0  0  0  0  0  0  0  0
  -18.5370  -26.7500   20.5710 C   0  0  2  0  0  0  0  0  0  0  0  0
  -19.7220  -27.3130   21.1790 O   0  0  0  0  0  0  0  0  0  0  0  0
  -20.4810  -26.3710   21.9600 C   0  0  0  0  0  0  0  0  0  0  0  0
  -21.3700  -25.5850   21.2220 C   0  0  0  0  0  0  0  0  0  0  0  0
  -21.2060  -24.1950   21.2250 C   0  0  0  0  0  0  0  0  0  0  0  0
  -22.0900  -23.3800   20.5170 C   0  0  0  0  0  0  0  0  0  0  0  0
  -23.1470  -23.9570   19.8080 C   0  0  0  0  0  0  0  0  0  0  0  0
  -24.0270  -23.1440   19.0960 C   0  0  0  0  0  0  0  0  0  0  0  0
  -23.3190  -25.3440   19.8100 C   0  0  0  0  0  0  0  0  0  0  0  0
  -22.4330  -26.1610   20.5200 C   0  0  0  0  0  0  0  0  0  0  0  0
  -18.3460  -27.4100   19.2070 C   0  0  2  0  0  0  0  0  0  0  0  0
  -19.5490  -27.3090   18.4540 O   0  0  0  0  0  0  0  0  0  0  0  0
  -18.0010  -28.8920   19.3870 C   0  0  1  0  0  0  0  0  0  0  0  0
  -17.8530  -29.5180   18.1120 O   0  0  0  0  0  0  0  0  0  0  0  0
  -13.3110  -28.5100   17.7590 C   0  0  2  0  0  0  0  0  0  0  0  0
  -12.8310  -29.8420   17.9420 O   0  0  0  0  0  0  0  0  0  0  0  0
  -12.4310  -27.7750   16.7320 C   0  0  2  0  0  0  0  0  0  0  0  0
  -12.5120  -28.4840   15.4830 O   0  0  0  0  0  0  0  0  0  0  0  0
  -10.9630  -27.6610   17.1990 C   0  0  0  0  0  0  0  0  0  0  0  0
  -10.0100  -27.4050   16.0130 C   0  0  0  0  0  0  0  0  0  0  0  0
  -10.1250  -25.9560   15.5020 C   0  0  0  0  0  0  0  0  0  0  0  0
   -8.8520  -25.5590   14.7400 C   0  0  0  0  0  0  0  0  0  0  0  0
   -9.0080  -25.8590   13.2420 C   0  0  0  0  0  0  0  0  0  0  0  0
   -7.7660  -25.3670   12.4860 C   0  0  0  0  0  0  0  0  0  0  0  0
   -7.8040  -25.8520   11.0290 C   0  0  0  0  0  0  0  0  0  0  0  0
   -6.7500  -26.9510   10.8420 C   0  0  0  0  0  0  0  0  0  0  0  0
   -6.8230  -27.5300    9.4240 C   0  0  0  0  0  0  0  0  0  0  0  0
   -6.4330  -29.0120    9.4810 C   0  0  0  0  0  0  0  0  0  0  0  0
   -5.6780  -29.4210    8.2100 C   0  0  0  0  0  0  0  0  0  0  0  0
   -4.8050  -30.6500    8.5080 C   0  0  0  0  0  0  0  0  0  0  0  0
   -5.4080  -31.8960    7.8600 C   0  0  0  0  0  0  0  0  0  0  0  0
   -4.5810  -33.1320    8.2280 C   0  0  0  0  0  0  0  0  0  0  0  0
 30 31  1  0
 32 31  1  6
 34 33  1  0
 34 35  1  1
 37 34  1  0
 37 38  1  1
 38 39  1  0
 49 47  1  0
 47 48  1  6
 47 37  1  0
 32 49  1  0
 49 50  1  6
 67 68  1  0
 66 67  1  0
 65 66  1  0
 64 65  1  0
 63 64  1  0
 62 63  1  0
 61 62  1  0
 60 61  1  0
 59 60  1  0
 58 59  1  0
 57 58  1  0
 56 57  1  0
 55 56  1  0
 53 55  1  0
 53 54  1  6
 51 53  1  0
 51 52  1  1
 29 51  1  0
 29 30  1  1
 29 28  1  0
 32 33  1  0
 35 36  1  0
 39 40  1  0
 40 41  2  0
 40 46  1  0
 41 42  1  0
 42 43  2  0
 43 44  1  0
 43 45  1  0
 45 46  2  0
 28 26  1  0
 26 27  2  0
 26 25  1  0
 25 24  1  0
 24 23  1  0
 23 22  1  0
 22 21  1  0
 21 20  1  0
 20 19  1  0
 19 18  1  0
 18 17  1  0
 17 16  1  0
 16 15  1  0
 15 14  1  0
 14 13  1  0
 13 12  1  0
 12 11  1  0
 11 10  1  0
 10  9  1  0
  9  8  1  0
  8  7  1  0
  7  6  1  0
  6  5  1  0
  5  4  1  0
  4  3  1  0
  3  2  1  0
  2  1  1  0
M  END
$$$$
