
     RDKit          3D

 64 65  0  0  0  0  0  0  0  0999 V2000
   86.6691  207.2177  326.1637 C   0  0  0  0  0  0  0  0  0  0  0  0
   85.2277  207.3421  326.0749 C   0  0  0  0  0  0  0  0  0  0  0  0
   84.8079  208.7569  325.6722 C   0  0  0  0  0  0  0  0  0  0  0  0
   84.7120  208.8988  324.1424 C   0  0  0  0  0  0  0  0  0  0  0  0
   84.6201  210.3005  323.6917 C   0  0  0  0  0  0  0  0  0  0  0  0
   84.5662  210.4729  322.1599 C   0  0  0  0  0  0  0  0  0  0  0  0
   84.3503  211.9285  321.7339 C   0  0  0  0  0  0  0  0  0  0  0  0
   84.1065  212.0056  320.2607 C   0  0  0  0  0  0  0  0  0  0  0  0
   84.1175  213.4500  319.7514 C   0  0  0  0  0  0  0  0  0  0  0  0
   83.9823  213.5569  318.2268 C   0  0  0  0  0  0  0  0  0  0  0  0
   84.0340  215.0178  317.7567 C   0  0  0  0  0  0  0  0  0  0  0  0
   84.0585  215.0862  316.2159 C   0  0  0  0  0  0  0  0  0  0  0  0
   83.9862  216.5336  315.7927 C   0  0  0  0  0  0  0  0  0  0  0  0
   84.5090  216.6915  314.3399 C   0  0  0  0  0  0  0  0  0  0  0  0
   85.8285  217.3866  314.3234 C   0  0  0  0  0  0  0  0  0  0  0  0
   86.9881  216.3915  314.4772 C   0  0  0  0  0  0  0  0  0  0  0  0
   87.2145  216.1154  315.9315 C   0  0  0  0  0  0  0  0  0  0  0  0
   87.8448  214.7241  316.1875 C   0  0  0  0  0  0  0  0  0  0  0  0
   89.1542  214.9270  316.9940 C   0  0  0  0  0  0  0  0  0  0  0  0
   88.7630  214.8907  318.4844 C   0  0  0  0  0  0  0  0  0  0  0  0
   89.2894  213.5898  319.1865 C   0  0  0  0  0  0  0  0  0  0  0  0
   89.9636  214.0719  320.4389 C   0  0  0  0  0  0  0  0  0  0  0  0
   91.2449  213.2911  320.7408 C   0  0  0  0  0  0  0  0  0  0  0  0
   91.7903  213.8752  322.0180 C   0  0  0  0  0  0  0  0  0  0  0  0
   93.0801  214.6600  321.7179 C   0  0  0  0  0  0  0  0  0  0  0  0
   92.9261  216.1796  321.9601 C   0  0  0  0  0  0  0  0  0  0  0  0
   92.9937  216.6244  323.0978 O   0  0  0  0  0  0  0  0  0  0  0  0
   92.9990  216.8818  320.8427 N   0  0  0  0  0  0  0  0  0  0  0  0
   93.5991  218.2123  320.9108 C   0  0  2  0  0  0  0  0  0  0  0  0
   94.1033  218.4108  322.3557 C   0  0  0  0  0  0  0  0  0  0  0  0
   95.4837  218.0460  322.4222 O   0  0  0  0  0  0  0  0  0  0  0  0
   96.3474  219.1408  322.7617 C   0  0  2  0  0  0  0  0  0  0  0  0
   95.6447  220.2855  323.2850 O   0  0  0  0  0  0  0  0  0  0  0  0
   94.8860  220.9988  322.3194 C   0  0  2  0  0  0  0  0  0  0  0  0
   93.3939  220.9226  322.8173 C   0  0  0  0  0  0  0  0  0  0  0  0
   93.2925  219.8180  323.7382 O   0  0  0  0  0  0  0  0  0  0  0  0
   95.0168  220.5056  320.8864 C   0  0  2  0  0  0  0  0  0  0  0  0
   94.2477  219.3495  320.6538 O   0  0  0  0  0  0  0  0  0  0  0  0
   93.4549  219.3391  319.4652 C   0  0  0  0  0  0  0  0  0  0  0  0
   92.5840  218.1229  319.4093 C   0  0  2  0  0  0  0  0  0  0  0  0
   91.4451  218.0404  318.4021 C   0  0  0  0  0  0  0  0  0  0  0  0
   91.0971  218.3315  319.8800 C   0  0  0  0  0  0  0  0  0  0  0  0
   96.4721  220.2952  320.5668 C   0  0  2  0  0  0  0  0  0  0  0  0
   96.5517  219.6294  319.3259 O   0  0  0  0  0  0  0  0  0  0  0  0
   97.1605  219.4749  321.6147 C   0  0  2  0  0  0  0  0  0  0  0  0
   97.7234  218.2818  320.9974 O   0  0  0  0  0  0  0  0  0  0  0  0
   92.5867  219.3141  320.5513 C   0  0  1  0  0  0  0  0  0  0  0  0
   93.1325  220.5713  320.9165 O   0  0  0  0  0  0  0  0  0  0  0  0
   92.2432  219.2809  319.0659 C   0  0  2  0  0  0  0  0  0  0  0  0
   92.6601  220.5339  318.5203 O   0  0  0  0  0  0  0  0  0  0  0  0
   90.7565  219.1123  318.8678 C   0  0  0  0  0  0  0  0  0  0  0  0
   90.4497  218.5978  317.4355 C   0  0  0  0  0  0  0  0  0  0  0  0
   89.1669  217.7590  317.4119 C   0  0  0  0  0  0  0  0  0  0  0  0
   89.2122  216.5740  316.4035 C   0  0  0  0  0  0  0  0  0  0  0  0
   88.3545  216.8643  315.1667 C   0  0  0  0  0  0  0  0  0  0  0  0
   87.1050  217.6018  315.6163 C   0  0  0  0  0  0  0  0  0  0  0  0
   85.8683  216.6960  315.4736 C   0  0  0  0  0  0  0  0  0  0  0  0
   86.2902  215.2987  315.0505 C   0  0  0  0  0  0  0  0  0  0  0  0
   85.6992  214.2477  316.0274 C   0  0  0  0  0  0  0  0  0  0  0  0
   85.4037  214.9489  317.3769 C   0  0  0  0  0  0  0  0  0  0  0  0
   85.2996  214.0045  318.5439 C   0  0  0  0  0  0  0  0  0  0  0  0
   86.5599  213.0574  318.5955 C   0  0  0  0  0  0  0  0  0  0  0  0
   87.8330  213.8843  318.2720 C   0  0  0  0  0  0  0  0  0  0  0  0
   87.5090  215.3579  318.2557 C   0  0  0  0  0  0  0  0  0  0  0  0
 32 45  1  0
 32 31  1  1
 32 33  1  0
 34 35  1  1
 35 36  1  0
 34 37  1  0
 33 34  1  0
 43 37  1  0
 37 38  1  1
 45 43  1  0
 43 44  1  6
 45 46  1  1
 63 64  1  0
 62 63  1  0
 61 62  1  0
 60 61  1  0
 59 60  1  0
 58 59  1  0
 57 58  1  0
 56 57  1  0
 55 56  1  0
 54 55  1  0
 53 54  1  0
 52 53  1  0
 51 52  1  0
 49 51  1  0
 49 50  1  1
 47 49  1  0
 47 48  1  1
 29 47  1  0
 29 30  1  6
 29 28  1  0
 30 31  1  0
 38 39  1  0
 40 39  1  6
 40 41  1  0
 40 42  1  0
 41 42  1  0
 28 26  1  0
 26 27  2  0
 26 25  1  0
 25 24  1  0
 24 23  1  0
 23 22  1  0
 22 21  1  0
 21 20  1  0
 20 19  1  0
 19 18  1  0
 18 17  1  0
 17 16  1  0
 16 15  1  0
 15 14  1  0
 14 13  1  0
 13 12  1  0
 12 11  1  0
 11 10  1  0
 10  9  1  0
  9  8  1  0
  8  7  1  0
  7  6  1  0
  6  5  1  0
  5  4  1  0
  4  3  1  0
  3  2  1  0
  2  1  1  0
M  END
$$$$
