
     RDKit          3D

 64 65  0  0  0  0  0  0  0  0999 V2000
   87.1080  206.9880  321.5420 C   0  0  0  0  0  0  0  0  0  0  0  0
   86.7440  205.8630  322.5200 C   0  0  0  0  0  0  0  0  0  0  0  0
   87.7970  205.7940  323.6140 C   0  0  0  0  0  0  0  0  0  0  0  0
   87.5000  204.6420  324.5710 C   0  0  0  0  0  0  0  0  0  0  0  0
   87.2670  205.1580  325.9950 C   0  0  0  0  0  0  0  0  0  0  0  0
   85.8880  205.8250  326.1050 C   0  0  0  0  0  0  0  0  0  0  0  0
   85.2110  205.4170  327.4140 C   0  0  0  0  0  0  0  0  0  0  0  0
   84.7970  206.6320  328.2480 C   0  0  0  0  0  0  0  0  0  0  0  0
   83.4890  207.2550  327.7490 C   0  0  0  0  0  0  0  0  0  0  0  0
   83.7760  208.5110  326.9070 C   0  0  0  0  0  0  0  0  0  0  0  0
   82.7400  209.5940  327.2030 C   0  0  0  0  0  0  0  0  0  0  0  0
   82.9620  210.8130  326.2950 C   0  0  0  0  0  0  0  0  0  0  0  0
   82.6860  210.4380  324.8340 C   0  0  0  0  0  0  0  0  0  0  0  0
   82.3340  211.6670  323.9990 C   0  0  0  0  0  0  0  0  0  0  0  0
   83.5340  212.1100  323.1560 C   0  0  0  0  0  0  0  0  0  0  0  0
   83.7000  211.2210  321.9220 C   0  0  0  0  0  0  0  0  0  0  0  0
   84.7240  211.8650  320.9810 C   0  0  0  0  0  0  0  0  0  0  0  0
   85.8430  210.8850  320.6080 C   0  0  0  0  0  0  0  0  0  0  0  0
   86.9720  211.6540  319.8910 C   0  0  0  0  0  0  0  0  0  0  0  0
   88.0110  212.0750  320.9180 C   0  0  0  0  0  0  0  0  0  0  0  0
   89.1600  212.8520  320.2670 C   0  0  0  0  0  0  0  0  0  0  0  0
   90.1480  213.1470  321.3970 C   0  0  0  0  0  0  0  0  0  0  0  0
   91.2910  214.0530  320.9410 C   0  0  0  0  0  0  0  0  0  0  0  0
   92.2650  214.1130  322.1130 C   0  0  0  0  0  0  0  0  0  0  0  0
   93.3540  215.1500  321.8790 C   0  0  0  0  0  0  0  0  0  0  0  0
   92.8180  216.5650  322.0890 C   0  0  0  0  0  0  0  0  0  0  0  0
   92.1560  216.8610  323.0800 O   0  0  0  0  0  0  0  0  0  0  0  0
   93.1490  217.4390  321.1410 N   0  0  0  0  0  0  0  0  0  0  0  0
   92.7310  218.8350  321.2620 C   0  0  1  0  0  0  0  0  0  0  0  0
   93.7440  219.5470  322.1720 C   0  0  0  0  0  0  0  0  0  0  0  0
   95.0220  219.4110  321.5650 O   0  0  0  0  0  0  0  0  0  0  0  0
   96.0930  220.0080  322.2870 C   0  0  1  0  0  0  0  0  0  0  0  0
   96.3100  219.3640  323.5540 O   0  0  0  0  0  0  0  0  0  0  0  0
   96.5670  217.9610  323.4160 C   0  0  2  0  0  0  0  0  0  0  0  0
   96.6720  217.4010  324.8400 C   0  0  0  0  0  0  0  0  0  0  0  0
   96.8390  215.9870  324.7650 O   0  0  0  0  0  0  0  0  0  0  0  0
   97.8470  217.7440  322.6120 C   0  0  2  0  0  0  0  0  0  0  0  0
   98.9740  218.3210  323.2870 O   0  0  0  0  0  0  0  0  0  0  0  0
   99.7670  217.4230  324.0610 C   0  0  0  0  0  0  0  0  0  0  0  0
  101.0110  217.0150  323.2820 C   0  0  2  0  0  0  0  0  0  0  0  0
  100.9520  215.7190  322.4950 C   0  0  0  0  0  0  0  0  0  0  0  0
  101.7240  215.7630  323.7950 C   0  0  0  0  0  0  0  0  0  0  0  0
   97.6970  218.4320  321.2610 C   0  0  2  0  0  0  0  0  0  0  0  0
   98.9200  218.3630  320.5470 O   0  0  0  0  0  0  0  0  0  0  0  0
   97.3340  219.8940  321.4390 C   0  0  1  0  0  0  0  0  0  0  0  0
   97.0790  220.4900  320.1510 O   0  0  0  0  0  0  0  0  0  0  0  0
   92.7180  219.5050  319.8870 C   0  0  2  0  0  0  0  0  0  0  0  0
   92.3020  220.8590  320.0520 O   0  0  0  0  0  0  0  0  0  0  0  0
   91.7910  218.7950  318.8920 C   0  0  2  0  0  0  0  0  0  0  0  0
   91.8970  219.4820  317.6300 O   0  0  0  0  0  0  0  0  0  0  0  0
   90.3370  218.7860  319.3790 C   0  0  0  0  0  0  0  0  0  0  0  0
   89.3620  218.4010  318.2470 C   0  0  0  0  0  0  0  0  0  0  0  0
   89.6890  217.0090  317.6760 C   0  0  0  0  0  0  0  0  0  0  0  0
   88.4560  216.4030  316.9810 C   0  0  0  0  0  0  0  0  0  0  0  0
   88.2350  217.0630  315.6170 C   0  0  0  0  0  0  0  0  0  0  0  0
   87.1460  216.2940  314.8490 C   0  0  0  0  0  0  0  0  0  0  0  0
   87.1360  216.7120  313.3680 C   0  0  0  0  0  0  0  0  0  0  0  0
   86.1770  217.8930  313.1930 C   0  0  0  0  0  0  0  0  0  0  0  0
   86.1740  218.3990  311.7410 C   0  0  0  0  0  0  0  0  0  0  0  0
   85.5870  219.8180  311.7670 C   0  0  0  0  0  0  0  0  0  0  0  0
   85.2130  220.3030  310.3670 C   0  0  0  0  0  0  0  0  0  0  0  0
   84.2090  221.4760  310.4620 C   0  0  0  0  0  0  0  0  0  0  0  0
   84.9110  222.8080  310.2340 C   0  0  0  0  0  0  0  0  0  0  0  0
   83.9010  223.9600  310.2820 C   0  0  0  0  0  0  0  0  0  0  0  0
 32 45  1  0
 32 31  1  6
 32 33  1  0
 34 35  1  1
 35 36  1  0
 34 37  1  0
 33 34  1  0
 43 37  1  0
 37 38  1  1
 45 43  1  0
 43 44  1  1
 45 46  1  6
 63 64  1  0
 62 63  1  0
 61 62  1  0
 60 61  1  0
 59 60  1  0
 58 59  1  0
 57 58  1  0
 56 57  1  0
 55 56  1  0
 54 55  1  0
 53 54  1  0
 52 53  1  0
 51 52  1  0
 49 51  1  0
 49 50  1  6
 47 49  1  0
 47 48  1  1
 29 47  1  0
 29 30  1  1
 29 28  1  0
 30 31  1  0
 38 39  1  0
 40 39  1  1
 40 41  1  0
 40 42  1  0
 41 42  1  0
 28 26  1  0
 26 27  2  0
 26 25  1  0
 25 24  1  0
 24 23  1  0
 23 22  1  0
 22 21  1  0
 21 20  1  0
 20 19  1  0
 19 18  1  0
 18 17  1  0
 17 16  1  0
 16 15  1  0
 15 14  1  0
 14 13  1  0
 13 12  1  0
 12 11  1  0
 11 10  1  0
 10  9  1  0
  9  8  1  0
  8  7  1  0
  7  6  1  0
  6  5  1  0
  5  4  1  0
  4  3  1  0
  3  2  1  0
  2  1  1  0
M  END
$$$$
