
     RDKit          3D

 69 70  0  0  0  0  0  0  0  0999 V2000
   86.6060  206.9640  321.5120 C   0  0  0  0  0  0  0  0  0  0  0  0
   87.0550  205.8110  322.4070 C   0  0  0  0  0  0  0  0  0  0  0  0
   86.8570  206.1930  323.8700 C   0  0  0  0  0  0  0  0  0  0  0  0
   87.2220  205.0110  324.7570 C   0  0  0  0  0  0  0  0  0  0  0  0
   87.4850  205.4230  326.2140 C   0  0  0  0  0  0  0  0  0  0  0  0
   86.4480  206.4100  326.7760 C   0  0  0  0  0  0  0  0  0  0  0  0
   85.1170  205.7510  327.1240 C   0  0  0  0  0  0  0  0  0  0  0  0
   84.5600  206.3380  328.4410 C   0  0  0  0  0  0  0  0  0  0  0  0
   83.3720  207.2700  328.1970 C   0  0  0  0  0  0  0  0  0  0  0  0
   83.8250  208.5390  327.4650 C   0  0  0  0  0  0  0  0  0  0  0  0
   82.7260  209.6020  327.5120 C   0  0  0  0  0  0  0  0  0  0  0  0
   83.1880  210.8510  326.7640 C   0  0  0  0  0  0  0  0  0  0  0  0
   82.4280  210.9730  325.4450 C   0  0  0  0  0  0  0  0  0  0  0  0
   83.1370  211.9780  324.5520 C   0  0  0  0  0  0  0  0  0  0  0  0
   82.5480  211.9310  323.1430 C   0  0  0  0  0  0  0  0  0  0  0  0
   83.4740  211.1740  322.1910 C   0  0  0  0  0  0  0  0  0  0  0  0
   84.6060  212.0880  321.7230 C   0  0  0  0  0  0  0  0  0  0  0  0
   85.5330  211.3280  320.7780 C   0  0  0  0  0  0  0  0  0  0  0  0
   86.5860  212.2860  320.1830 C   0  0  0  0  0  0  0  0  0  0  0  0
   87.9150  212.0620  320.8840 C   0  0  0  0  0  0  0  0  0  0  0  0
   88.9640  213.1000  320.4420 C   0  0  0  0  0  0  0  0  0  0  0  0
   89.9660  213.2430  321.5840 C   0  0  0  0  0  0  0  0  0  0  0  0
   91.0980  214.2110  321.2130 C   0  0  0  0  0  0  0  0  0  0  0  0
   92.0310  214.3020  322.4130 C   0  0  0  0  0  0  0  0  0  0  0  0
   93.1260  215.3450  322.1780 C   0  0  0  0  0  0  0  0  0  0  0  0
   92.5870  216.7650  322.3830 C   0  0  0  0  0  0  0  0  0  0  0  0
   91.8850  217.0350  323.3610 O   0  0  0  0  0  0  0  0  0  0  0  0
   92.9510  217.6540  321.4340 N   0  0  0  0  0  0  0  0  0  0  0  0
   92.5580  219.0650  321.5450 C   0  0  1  0  0  0  0  0  0  0  0  0
   93.5840  219.7700  322.4400 C   0  0  0  0  0  0  0  0  0  0  0  0
   94.8710  219.6000  321.8410 O   0  0  0  0  0  0  0  0  0  0  0  0
   95.9190  220.2620  322.5450 C   0  0  1  0  0  0  0  0  0  0  0  0
   96.1230  219.6390  323.8380 O   0  0  0  0  0  0  0  0  0  0  0  0
   96.4870  218.2630  323.7840 C   0  0  2  0  0  0  0  0  0  0  0  0
   96.6350  217.8010  325.2480 C   0  0  0  0  0  0  0  0  0  0  0  0
   97.0270  216.4200  325.2900 O   0  0  0  0  0  0  0  0  0  0  0  0
   97.7740  218.0870  322.9570 C   0  0  2  0  0  0  0  0  0  0  0  0
   98.8940  218.7840  323.5450 O   0  0  0  0  0  0  0  0  0  0  0  0
   99.7750  218.0300  324.4080 C   0  0  0  0  0  0  0  0  0  0  0  0
  100.5830  217.1350  323.6990 C   0  0  0  0  0  0  0  0  0  0  0  0
  101.7010  217.5960  322.9980 C   0  0  0  0  0  0  0  0  0  0  0  0
  102.5080  216.6920  322.3090 C   0  0  0  0  0  0  0  0  0  0  0  0
  102.1990  215.3330  322.3250 C   0  0  0  0  0  0  0  0  0  0  0  0
  103.1810  214.1840  321.4660 Cl  0  0  0  0  0  0  0  0  0  0  0  0
  101.0870  214.8750  323.0250 C   0  0  0  0  0  0  0  0  0  0  0  0
  100.7090  213.1820  323.0380 Cl  0  0  0  0  0  0  0  0  0  0  0  0
  100.2800  215.7710  323.7150 C   0  0  0  0  0  0  0  0  0  0  0  0
   97.5470  218.6840  321.5700 C   0  0  2  0  0  0  0  0  0  0  0  0
   98.7400  218.5730  320.7890 O   0  0  0  0  0  0  0  0  0  0  0  0
   97.1730  220.1600  321.7160 C   0  0  1  0  0  0  0  0  0  0  0  0
   96.9580  220.7700  320.4180 O   0  0  0  0  0  0  0  0  0  0  0  0
   92.5420  219.7430  320.1770 C   0  0  2  0  0  0  0  0  0  0  0  0
   92.1260  221.0890  320.3680 O   0  0  0  0  0  0  0  0  0  0  0  0
   91.6100  219.0430  319.1680 C   0  0  2  0  0  0  0  0  0  0  0  0
   91.6540  219.7790  317.9260 O   0  0  0  0  0  0  0  0  0  0  0  0
   90.1690  218.9550  319.6940 C   0  0  0  0  0  0  0  0  0  0  0  0
   89.1820  218.5580  318.5690 C   0  0  0  0  0  0  0  0  0  0  0  0
   89.4870  217.1500  318.0330 C   0  0  0  0  0  0  0  0  0  0  0  0
   88.2730  216.5610  317.2780 C   0  0  0  0  0  0  0  0  0  0  0  0
   88.0840  217.2410  315.9190 C   0  0  0  0  0  0  0  0  0  0  0  0
   86.9670  216.5070  315.1370 C   0  0  0  0  0  0  0  0  0  0  0  0
   86.9430  216.9630  313.6760 C   0  0  0  0  0  0  0  0  0  0  0  0
   86.1250  218.2450  313.5730 C   0  0  0  0  0  0  0  0  0  0  0  0
   85.9930  218.7050  312.1190 C   0  0  0  0  0  0  0  0  0  0  0  0
   85.4010  220.1090  312.1970 C   0  0  0  0  0  0  0  0  0  0  0  0
   85.1680  220.7130  310.8230 C   0  0  0  0  0  0  0  0  0  0  0  0
   84.1780  221.8780  310.9670 C   0  0  0  0  0  0  0  0  0  0  0  0
   84.7300  223.1270  310.3050 C   0  0  0  0  0  0  0  0  0  0  0  0
   83.7360  224.2900  310.4460 C   0  0  0  0  0  0  0  0  0  0  0  0
 48 37  1  0
 34 37  1  0
 37 38  1  1
 50 48  1  0
 48 49  1  6
 32 50  1  0
 50 51  1  6
 32 33  1  0
 33 34  1  0
 34 35  1  1
 35 36  1  0
 68 69  1  0
 67 68  1  0
 66 67  1  0
 65 66  1  0
 64 65  1  0
 63 64  1  0
 62 63  1  0
 61 62  1  0
 60 61  1  0
 59 60  1  0
 58 59  1  0
 57 58  1  0
 56 57  1  0
 54 56  1  0
 54 55  1  6
 52 54  1  0
 52 53  1  1
 29 52  1  0
 29 30  1  1
 29 28  1  0
 31 30  1  0
 32 31  1  6
 38 39  1  0
 39 40  1  0
 40 47  2  0
 40 41  1  0
 47 45  1  0
 45 46  1  0
 45 43  2  0
 43 44  1  0
 43 42  1  0
 42 41  2  0
 28 26  1  0
 26 27  2  0
 26 25  1  0
 25 24  1  0
 24 23  1  0
 23 22  1  0
 22 21  1  0
 21 20  1  0
 20 19  1  0
 19 18  1  0
 18 17  1  0
 17 16  1  0
 16 15  1  0
 15 14  1  0
 14 13  1  0
 13 12  1  0
 12 11  1  0
 11 10  1  0
 10  9  1  0
  9  8  1  0
  8  7  1  0
  7  6  1  0
  6  5  1  0
  5  4  1  0
  4  3  1  0
  3  2  1  0
  2  1  1  0
M  END
$$$$
