
     RDKit          3D

 71 72  0  0  0  0  0  0  0  0999 V2000
  -46.5945  -20.3962  210.6955 C   0  0  0  0  0  0  0  0  0  0  0  0
  -45.6499  -21.5030  210.6243 C   0  0  0  0  0  0  0  0  0  0  0  0
  -45.1788  -21.7091  209.2082 C   0  0  0  0  0  0  0  0  0  0  0  0
  -45.0304  -23.2228  208.9205 C   0  0  0  0  0  0  0  0  0  0  0  0
  -44.9105  -23.5372  207.4587 C   0  0  0  0  0  0  0  0  0  0  0  0
  -44.7684  -25.0564  207.1250 C   0  0  0  0  0  0  0  0  0  0  0  0
  -44.7208  -25.3366  205.6417 C   0  0  0  0  0  0  0  0  0  0  0  0
  -44.4394  -26.8362  205.4188 C   0  0  0  0  0  0  0  0  0  0  0  0
  -45.0499  -27.2711  204.0858 C   0  0  0  0  0  0  0  0  0  0  0  0
  -44.1486  -28.3136  203.4151 C   0  0  0  0  0  0  0  0  0  0  0  0
  -44.3511  -28.3033  201.8763 C   0  0  0  0  0  0  0  0  0  0  0  0
  -44.4468  -29.7237  201.3726 C   0  0  0  0  0  0  0  0  0  0  0  0
  -44.2810  -29.7665  199.8445 C   0  0  0  0  0  0  0  0  0  0  0  0
  -45.6556  -29.6835  199.1317 C   0  0  0  0  0  0  0  0  0  0  0  0
  -46.7371  -29.8507  200.1731 C   0  0  0  0  0  0  0  0  0  0  0  0
  -47.0288  -28.5581  200.9442 C   0  0  0  0  0  0  0  0  0  0  0  0
  -48.3325  -28.6223  201.6862 C   0  0  0  0  0  0  0  0  0  0  0  0
  -48.8927  -27.2158  202.0117 C   0  0  0  0  0  0  0  0  0  0  0  0
  -48.2220  -26.6436  203.2485 C   0  0  0  0  0  0  0  0  0  0  0  0
  -48.7155  -27.3264  204.5095 C   0  0  0  0  0  0  0  0  0  0  0  0
  -50.1724  -26.8848  204.7854 C   0  0  0  0  0  0  0  0  0  0  0  0
  -50.4181  -26.9084  206.3013 C   0  0  0  0  0  0  0  0  0  0  0  0
  -51.8684  -26.7023  206.6576 C   0  0  0  0  0  0  0  0  0  0  0  0
  -52.1301  -27.3113  208.0529 C   0  0  0  0  0  0  0  0  0  0  0  0
  -53.5924  -27.7974  208.1716 C   0  0  0  0  0  0  0  0  0  0  0  0
  -53.6514  -29.3447  208.2261 C   0  0  0  0  0  0  0  0  0  0  0  0
  -53.6120  -29.9594  209.2806 O   0  0  0  0  0  0  0  0  0  0  0  0
  -53.9026  -29.9184  207.0353 N   0  0  0  0  0  0  0  0  0  0  0  0
  -54.2746  -31.3455  206.9043 C   0  0  2  0  0  0  0  0  0  0  0  0
  -54.8165  -31.8076  208.2888 C   0  0  0  0  0  0  0  0  0  0  0  0
  -55.5684  -32.9964  208.0790 O   0  0  0  0  0  0  0  0  0  0  0  0
  -56.8655  -32.9820  208.7017 C   0  0  1  0  0  0  0  0  0  0  0  0
  -56.7674  -32.6795  210.1272 O   0  0  0  0  0  0  0  0  0  0  0  0
  -56.2139  -31.4343  210.4196 C   0  0  2  0  0  0  0  0  0  0  0  0
  -56.1411  -31.2842  211.9123 C   0  0  0  0  0  0  0  0  0  0  0  0
  -56.0540  -29.9109  212.3321 O   0  0  0  0  0  0  0  0  0  0  0  0
  -57.0536  -30.2915  209.7762 C   0  0  1  0  0  0  0  0  0  0  0  0
  -56.4893  -29.0005  209.9864 O   0  0  0  0  0  0  0  0  0  0  0  0
  -56.4499  -28.5484  211.3251 C   0  0  0  0  0  0  0  0  0  0  0  0
  -56.2722  -27.1423  211.4423 C   0  0  0  0  0  0  0  0  0  0  0  0
  -57.4094  -26.3607  211.6384 C   0  0  0  0  0  0  0  0  0  0  0  0
  -57.2720  -25.0565  212.1019 C   0  0  0  0  0  0  0  0  0  0  0  0
  -55.9866  -24.5467  212.4195 C   0  0  0  0  0  0  0  0  0  0  0  0
  -55.8403  -23.4223  213.2678 C   0  0  2  0  0  0  0  0  0  0  0  0
  -54.6202  -23.3490  213.8079 F   0  0  0  0  0  0  0  0  0  0  0  0
  -56.7909  -23.4790  214.2621 F   0  0  0  0  0  0  0  0  0  0  0  0
  -56.0658  -22.2338  212.5954 F   0  0  0  0  0  0  0  0  0  0  0  0
  -54.8813  -25.2791  212.0538 C   0  0  0  0  0  0  0  0  0  0  0  0
  -55.0285  -26.5851  211.5966 C   0  0  0  0  0  0  0  0  0  0  0  0
  -57.2725  -30.5546  208.2623 C   0  0  2  0  0  0  0  0  0  0  0  0
  -58.1925  -29.6588  207.7521 O   0  0  0  0  0  0  0  0  0  0  0  0
  -57.7580  -31.9858  208.0181 C   0  0  1  0  0  0  0  0  0  0  0  0
  -57.6814  -32.2541  206.6261 O   0  0  0  0  0  0  0  0  0  0  0  0
  -53.0012  -32.1468  206.5746 C   0  0  1  0  0  0  0  0  0  0  0  0
  -53.3254  -33.5546  206.4874 O   0  0  0  0  0  0  0  0  0  0  0  0
  -52.3142  -31.6975  205.2902 C   0  0  2  0  0  0  0  0  0  0  0  0
  -52.9677  -32.3353  204.1911 O   0  0  0  0  0  0  0  0  0  0  0  0
  -50.8003  -31.9901  205.3064 C   0  0  0  0  0  0  0  0  0  0  0  0
  -50.0423  -30.9568  204.4957 C   0  0  0  0  0  0  0  0  0  0  0  0
  -50.8377  -29.6521  204.3524 C   0  0  0  0  0  0  0  0  0  0  0  0
  -49.9124  -28.4614  203.9647 C   0  0  0  0  0  0  0  0  0  0  0  0
  -48.4647  -28.8026  204.3952 C   0  0  0  0  0  0  0  0  0  0  0  0
  -47.5812  -28.7875  203.1465 C   0  0  0  0  0  0  0  0  0  0  0  0
  -46.2802  -28.0153  203.3268 C   0  0  0  0  0  0  0  0  0  0  0  0
  -46.4951  -26.5143  203.2219 C   0  0  0  0  0  0  0  0  0  0  0  0
  -45.4927  -25.7887  204.0323 C   0  0  0  0  0  0  0  0  0  0  0  0
  -46.1852  -24.7342  204.9370 C   0  0  0  0  0  0  0  0  0  0  0  0
  -46.2612  -25.2014  206.3817 C   0  0  0  0  0  0  0  0  0  0  0  0
  -46.4030  -23.9798  207.2703 C   0  0  0  0  0  0  0  0  0  0  0  0
  -46.5895  -22.7283  206.5432 C   0  0  0  0  0  0  0  0  0  0  0  0
  -47.9777  -22.0881  206.8101 C   0  0  0  0  0  0  0  0  0  0  0  0
 32 52  1  0
 32 31  1  6
 32 33  1  0
 50 37  1  0
 52 50  1  0
 50 51  1  1
 34 37  1  0
 37 38  1  1
 34 35  1  1
 33 34  1  0
 35 36  1  0
 52 53  1  6
 38 39  1  0
 30 31  1  0
 70 71  1  0
 69 70  1  0
 68 69  1  0
 67 68  1  0
 66 67  1  0
 65 66  1  0
 64 65  1  0
 63 64  1  0
 62 63  1  0
 61 62  1  0
 60 61  1  0
 59 60  1  0
 58 59  1  0
 56 58  1  0
 56 57  1  6
 54 56  1  0
 54 55  1  1
 29 54  1  0
 29 30  1  6
 29 28  1  0
 39 40  1  0
 40 41  4  0
 40 49  4  0
 41 42  4  0
 42 43  4  0
 43 44  1  0
 43 48  4  0
 44 45  1  1
 44 46  1  0
 44 47  1  0
 48 49  4  0
 28 26  1  0
 26 27  2  0
 26 25  1  0
 25 24  1  0
 24 23  1  0
 23 22  1  0
 22 21  1  0
 21 20  1  0
 20 19  1  0
 19 18  1  0
 18 17  1  0
 17 16  1  0
 16 15  1  0
 15 14  1  0
 14 13  1  0
 13 12  1  0
 12 11  1  0
 11 10  1  0
 10  9  1  0
  9  8  1  0
  8  7  1  0
  7  6  1  0
  6  5  1  0
  5  4  1  0
  4  3  1  0
  3  2  1  0
  2  1  1  0
M  END
$$$$
