
     RDKit          3D

 71 72  0  0  0  0  0  0  0  0999 V2000
  -47.5850  -19.5020  208.0320 C   0  0  0  0  0  0  0  0  0  0  0  0
  -47.5850  -18.0860  208.6170 C   0  0  0  0  0  0  0  0  0  0  0  0
  -47.7280  -18.1580  210.1380 C   0  0  0  0  0  0  0  0  0  0  0  0
  -47.4740  -16.7720  210.7290 C   0  0  0  0  0  0  0  0  0  0  0  0
  -47.9900  -16.6820  212.1750 C   0  0  0  0  0  0  0  0  0  0  0  0
  -47.3290  -17.7120  213.1100 C   0  0  0  0  0  0  0  0  0  0  0  0
  -45.7970  -17.6240  213.0660 C   0  0  0  0  0  0  0  0  0  0  0  0
  -45.2030  -18.1380  214.3880 C   0  0  0  0  0  0  0  0  0  0  0  0
  -43.9890  -19.0340  214.1190 C   0  0  0  0  0  0  0  0  0  0  0  0
  -44.4520  -20.4600  213.8000 C   0  0  0  0  0  0  0  0  0  0  0  0
  -43.2530  -21.4140  213.8210 C   0  0  0  0  0  0  0  0  0  0  0  0
  -43.5260  -22.6110  212.9050 C   0  0  0  0  0  0  0  0  0  0  0  0
  -43.0360  -22.2830  211.4920 C   0  0  0  0  0  0  0  0  0  0  0  0
  -43.4410  -23.3940  210.5200 C   0  0  0  0  0  0  0  0  0  0  0  0
  -43.4900  -22.8200  209.1000 C   0  0  0  0  0  0  0  0  0  0  0  0
  -43.7920  -23.9270  208.0880 C   0  0  0  0  0  0  0  0  0  0  0  0
  -45.3020  -24.1680  207.9790 C   0  0  0  0  0  0  0  0  0  0  0  0
  -45.9950  -23.0650  207.1650 C   0  0  0  0  0  0  0  0  0  0  0  0
  -47.2320  -23.6300  206.4500 C   0  0  0  0  0  0  0  0  0  0  0  0
  -48.3230  -23.9810  207.4680 C   0  0  0  0  0  0  0  0  0  0  0  0
  -49.4790  -24.7010  206.7710 C   0  0  0  0  0  0  0  0  0  0  0  0
  -50.6680  -24.7640  207.7360 C   0  0  0  0  0  0  0  0  0  0  0  0
  -51.5440  -25.9910  207.4600 C   0  0  0  0  0  0  0  0  0  0  0  0
  -52.4350  -26.2320  208.6840 C   0  0  0  0  0  0  0  0  0  0  0  0
  -53.5600  -27.2230  208.3550 C   0  0  0  0  0  0  0  0  0  0  0  0
  -53.1110  -28.6730  208.5890 C   0  0  0  0  0  0  0  0  0  0  0  0
  -52.5470  -28.9970  209.6340 O   0  0  0  0  0  0  0  0  0  0  0  0
  -53.4050  -29.5300  207.5950 N   0  0  0  0  0  0  0  0  0  0  0  0
  -53.0590  -30.9610  207.6760 C   0  0  1  0  0  0  0  0  0  0  0  0
  -54.0860  -31.6570  208.5800 C   0  0  0  0  0  0  0  0  0  0  0  0
  -55.3980  -31.4090  208.0640 O   0  0  0  0  0  0  0  0  0  0  0  0
  -56.4460  -31.9960  208.8570 C   0  0  1  0  0  0  0  0  0  0  0  0
  -56.5720  -31.3730  210.1490 O   0  0  0  0  0  0  0  0  0  0  0  0
  -56.7930  -29.9490  210.0590 C   0  0  2  0  0  0  0  0  0  0  0  0
  -56.7690  -29.3770  211.4840 C   0  0  0  0  0  0  0  0  0  0  0  0
  -56.6540  -27.9530  211.4320 O   0  0  0  0  0  0  0  0  0  0  0  0
  -58.1180  -29.6540  209.3210 C   0  0  2  0  0  0  0  0  0  0  0  0
  -59.2740  -30.0950  210.0780 O   0  0  0  0  0  0  0  0  0  0  0  0
  -59.9830  -29.0290  210.7460 C   0  0  0  0  0  0  0  0  0  0  0  0
  -61.0100  -28.4950  209.9520 C   0  0  0  0  0  0  0  0  0  0  0  0
  -61.1380  -27.1120  209.8010 C   0  0  0  0  0  0  0  0  0  0  0  0
  -62.1630  -26.5740  209.0230 C   0  0  0  0  0  0  0  0  0  0  0  0
  -63.0830  -27.4100  208.3810 C   0  0  0  0  0  0  0  0  0  0  0  0
  -64.1230  -26.8670  207.5980 C   0  0  2  0  0  0  0  0  0  0  0  0
  -63.7220  -25.6860  207.0240 F   0  0  0  0  0  0  0  0  0  0  0  0
  -65.2070  -26.6300  208.3920 F   0  0  0  0  0  0  0  0  0  0  0  0
  -64.4880  -27.7410  206.5910 F   0  0  0  0  0  0  0  0  0  0  0  0
  -62.9580  -28.7950  208.5430 C   0  0  0  0  0  0  0  0  0  0  0  0
  -61.9310  -29.3310  209.3220 C   0  0  0  0  0  0  0  0  0  0  0  0
  -58.1080  -30.3650  207.9640 C   0  0  2  0  0  0  0  0  0  0  0  0
  -59.3980  -30.2620  207.3590 O   0  0  0  0  0  0  0  0  0  0  0  0
  -57.7600  -31.8430  208.1160 C   0  0  1  0  0  0  0  0  0  0  0  0
  -57.6370  -32.4320  206.8160 O   0  0  0  0  0  0  0  0  0  0  0  0
  -53.0850  -31.5990  206.2720 C   0  0  2  0  0  0  0  0  0  0  0  0
  -52.7200  -32.9800  206.3660 O   0  0  0  0  0  0  0  0  0  0  0  0
  -52.1420  -30.8900  205.2790 C   0  0  2  0  0  0  0  0  0  0  0  0
  -52.2890  -31.5220  204.0030 O   0  0  0  0  0  0  0  0  0  0  0  0
  -50.6720  -30.9610  205.7340 C   0  0  0  0  0  0  0  0  0  0  0  0
  -49.7110  -30.5660  204.5970 C   0  0  0  0  0  0  0  0  0  0  0  0
  -49.9930  -29.1320  204.1190 C   0  0  0  0  0  0  0  0  0  0  0  0
  -48.7730  -28.5550  203.3830 C   0  0  0  0  0  0  0  0  0  0  0  0
  -48.6940  -29.1150  201.9560 C   0  0  0  0  0  0  0  0  0  0  0  0
  -47.5790  -28.3950  201.1850 C   0  0  0  0  0  0  0  0  0  0  0  0
  -47.5620  -28.8410  199.7160 C   0  0  0  0  0  0  0  0  0  0  0  0
  -46.6240  -30.0380  199.5440 C   0  0  0  0  0  0  0  0  0  0  0  0
  -46.5760  -30.4540  198.0690 C   0  0  0  0  0  0  0  0  0  0  0  0
  -45.4200  -31.4410  197.8490 C   0  0  0  0  0  0  0  0  0  0  0  0
  -45.8850  -32.6180  196.9830 C   0  0  0  0  0  0  0  0  0  0  0  0
  -44.7190  -33.5910  196.7530 C   0  0  0  0  0  0  0  0  0  0  0  0
  -45.2330  -35.0360  196.7620 C   0  0  0  0  0  0  0  0  0  0  0  0
  -44.0620  -36.0050  196.5680 C   0  0  0  0  0  0  0  0  0  0  0  0
 32 52  1  0
 32 31  1  6
 32 33  1  0
 50 37  1  0
 52 50  1  0
 50 51  1  1
 34 37  1  0
 37 38  1  1
 34 35  1  1
 33 34  1  0
 35 36  1  0
 52 53  1  6
 38 39  1  0
 30 31  1  0
 70 71  1  0
 69 70  1  0
 68 69  1  0
 67 68  1  0
 66 67  1  0
 65 66  1  0
 64 65  1  0
 63 64  1  0
 62 63  1  0
 61 62  1  0
 60 61  1  0
 59 60  1  0
 58 59  1  0
 56 58  1  0
 56 57  1  6
 54 56  1  0
 54 55  1  1
 29 54  1  0
 29 30  1  1
 29 28  1  0
 39 40  1  0
 40 41  2  0
 40 49  1  0
 41 42  1  0
 42 43  2  0
 43 44  1  0
 43 48  1  0
 44 45  1  6
 44 46  1  0
 44 47  1  0
 48 49  2  0
 28 26  1  0
 26 27  2  0
 26 25  1  0
 25 24  1  0
 24 23  1  0
 23 22  1  0
 22 21  1  0
 21 20  1  0
 20 19  1  0
 19 18  1  0
 18 17  1  0
 17 16  1  0
 16 15  1  0
 15 14  1  0
 14 13  1  0
 13 12  1  0
 12 11  1  0
 11 10  1  0
 10  9  1  0
  9  8  1  0
  8  7  1  0
  7  6  1  0
  6  5  1  0
  5  4  1  0
  4  3  1  0
  3  2  1  0
  2  1  1  0
M  END
$$$$
