
     RDKit          3D

 33 37  0  0  0  0  0  0  0  0999 V2000
    6.3163  -61.2571   10.2318 N   0  0  0  0  0  0  0  0  0  0  0  0
    5.4006  -61.1984    9.0159 C   0  0  0  0  0  0  0  0  0  0  0  0
    6.1517  -61.2136    7.6911 C   0  0  0  0  0  0  0  0  0  0  0  0
    6.2457  -59.9537    7.0695 C   0  0  0  0  0  0  0  0  0  0  0  0
    6.3639  -59.9266    5.6479 C   0  0  0  0  0  0  0  0  0  0  0  0
    6.4174  -61.2027    4.9522 C   0  0  0  0  0  0  0  0  0  0  0  0
    6.4489  -61.0995    3.5180 C   0  0  0  0  0  0  0  0  0  0  0  0
    5.2643  -61.2266    2.8876 N   0  0  0  0  0  0  0  0  0  0  0  0
    5.2567  -61.4726    1.5156 C   0  0  0  0  0  0  0  0  0  0  0  0
    6.4400  -61.5295    0.7430 C   0  0  0  0  0  0  0  0  0  0  0  0
    6.4207  -62.3380   -0.4247 O   0  0  0  0  0  0  0  0  0  0  0  0
    6.8674  -63.7171   -0.3931 C   0  0  0  0  0  0  0  0  0  0  0  0
    6.3621  -64.3894    0.9056 C   0  0  1  0  0  0  0  0  0  0  0  0
    5.1605  -63.5504    1.5186 C   0  0  0  0  0  0  0  0  0  0  0  0
    3.9961  -63.5567    0.6038 C   0  0  0  0  0  0  0  0  0  0  0  0
    3.6370  -65.0180    0.2226 N   0  0  0  0  0  0  0  0  0  0  0  0
    4.7120  -65.9432   -0.3244 C   0  0  0  0  0  0  0  0  0  0  0  0
    5.9887  -65.8550    0.5900 C   0  0  0  0  0  0  0  0  0  0  0  0
    7.6282  -61.2199    1.3775 N   0  0  0  0  0  0  0  0  0  0  0  0
    7.6641  -61.0142    2.7906 C   0  0  0  0  0  0  0  0  0  0  0  0
    8.9118  -60.4624    3.4442 C   0  0  0  0  0  0  0  0  0  0  0  0
    9.1328  -59.0300    3.5240 C   0  0  0  0  0  0  0  0  0  0  0  0
   10.4963  -58.5770    3.5568 C   0  0  0  0  0  0  0  0  0  0  0  0
   11.6198  -59.5536    3.5001 C   0  0  0  0  0  0  0  0  0  0  0  0
   12.9622  -58.9809    3.2329 C   0  0  0  0  0  0  0  0  0  0  0  0
   13.9330  -59.6167    2.3907 C   0  0  0  0  0  0  0  0  0  0  0  0
   14.6552  -58.5478    1.8691 C   0  0  0  0  0  0  0  0  0  0  0  0
   14.2807  -57.2905    2.4404 O   0  0  0  0  0  0  0  0  0  0  0  0
   13.2643  -57.6054    3.3925 C   0  0  0  0  0  0  0  0  0  0  0  0
   11.4180  -60.9381    3.5766 C   0  0  0  0  0  0  0  0  0  0  0  0
   10.0708  -61.4040    3.5496 C   0  0  0  0  0  0  0  0  0  0  0  0
    6.3372  -62.4324    5.5485 C   0  0  0  0  0  0  0  0  0  0  0  0
    6.3203  -62.4489    6.9746 C   0  0  0  0  0  0  0  0  0  0  0  0
  1  2  1  0
  2  3  1  0
  3  4  4  0
  3 33  4  0
  4  5  4  0
  5  6  4  0
  6 32  4  0
  6  7  1  0
 32 33  4  0
  7 20  4  0
  7  8  4  0
 20 21  1  0
 20 19  4  0
 21 22  4  0
 21 31  4  0
 22 23  4  0
 23 24  4  0
 24 25  1  0
 24 30  4  0
 25 29  4  0
 25 26  4  0
 29 28  4  0
 28 27  4  0
 27 26  4  0
 30 31  4  0
 19 10  4  0
 10  9  4  0
 10 11  1  0
  9  8  4  0
 11 12  1  0
 13 12  1  6
 13 14  1  0
 13 18  1  0
 14 15  1  0
 15 16  1  0
 16 17  1  0
 17 18  1  0
M  CHG  2   1   1  16   1
M  END
$$$$
