
     RDKit          3D

 33 37  0  0  0  0  0  0  0  0999 V2000
  -57.3796   26.3304   10.2928 N   0  0  0  0  0  4  0  0  0  0  0  0
  -57.3620   27.3492    9.2214 C   0  0  0  0  0  0  0  0  0  0  0  0
  -57.3788   26.6767    7.8457 C   0  0  0  0  0  0  0  0  0  0  0  0
  -56.3868   27.0462    6.8835 C   0  0  0  0  0  0  0  0  0  0  0  0
  -56.6582   27.0053    5.4877 C   0  0  0  0  0  0  0  0  0  0  0  0
  -57.8340   26.2196    5.1010 C   0  0  0  0  0  0  0  0  0  0  0  0
  -57.7228   25.5578    3.7686 C   0  0  0  0  0  0  0  0  0  0  0  0
  -57.7333   26.4060    2.6745 N   0  0  0  0  0  0  0  0  0  0  0  0
  -57.7411   25.9729    1.3234 C   0  0  0  0  0  0  0  0  0  0  0  0
  -57.7672   24.6080    1.0805 C   0  0  0  0  0  0  0  0  0  0  0  0
  -57.7321   24.2004   -0.2847 O   0  0  0  0  0  0  0  0  0  0  0  0
  -57.7727   25.3689   -1.2108 C   0  0  0  0  0  0  0  0  0  0  0  0
  -57.4225   24.7623   -2.6128 C   0  0  2  0  0  0  0  0  0  0  0  0
  -57.9216   25.4602   -3.9335 C   0  0  0  0  0  0  0  0  0  0  0  0
  -57.6149   24.5884   -5.2074 C   0  0  0  0  0  0  0  0  0  0  0  0
  -58.1036   23.1775   -4.8719 N   0  0  0  0  0  4  0  0  0  0  0  0
  -57.3610   22.5881   -3.7269 C   0  0  0  0  0  0  0  0  0  0  0  0
  -57.8021   23.2872   -2.4554 C   0  0  0  0  0  0  0  0  0  0  0  0
  -57.7149   23.6982    2.1400 N   0  0  0  0  0  0  0  0  0  0  0  0
  -57.7042   24.1675    3.5363 C   0  0  0  0  0  0  0  0  0  0  0  0
  -57.3895   23.1031    4.6834 C   0  0  0  0  0  0  0  0  0  0  0  0
  -56.1417   22.4712    4.6908 C   0  0  0  0  0  0  0  0  0  0  0  0
  -56.0842   21.0944    5.1433 C   0  0  0  0  0  0  0  0  0  0  0  0
  -57.2910   20.3944    5.5167 C   0  0  0  0  0  0  0  0  0  0  0  0
  -57.4242   18.9565    4.9692 C   0  0  0  0  0  0  0  0  0  0  0  0
  -56.3160   18.2444    4.4052 C   0  0  0  0  0  0  0  0  0  0  0  0
  -56.9057   17.6203    3.2860 N   0  0  0  0  0  0  0  0  0  0  0  0
  -58.3992   17.6821    3.3342 N   0  0  0  0  0  0  0  0  0  0  0  0
  -58.6848   18.3776    4.5353 C   0  0  0  0  0  0  0  0  0  0  0  0
  -58.4603   21.1769    5.8743 C   0  0  0  0  0  0  0  0  0  0  0  0
  -58.5268   22.5320    5.4376 C   0  0  0  0  0  0  0  0  0  0  0  0
  -58.8584   25.7750    6.0245 C   0  0  0  0  0  0  0  0  0  0  0  0
  -58.5492   25.8883    7.4503 C   0  0  0  0  0  0  0  0  0  0  0  0
  1  2  1  0
  2  3  1  0
  3  4  4  0
  3 33  4  0
  4  5  4  0
  5  6  4  0
  6 32  4  0
  6  7  1  0
 32 33  4  0
  7  8  4  0
  7 20  4  0
  8  9  4  0
  9 10  4  0
 10 11  1  0
 10 19  4  0
 11 12  1  0
 13 12  1  6
 13 14  1  0
 13 18  1  0
 14 15  1  0
 15 16  1  0
 16 17  1  0
 17 18  1  0
 19 20  4  0
 20 21  1  0
 21 22  4  0
 21 31  4  0
 22 23  4  0
 23 24  4  0
 24 30  4  0
 24 25  1  0
 30 31  4  0
 25 29  4  0
 25 26  4  0
 29 28  4  0
 28 27  4  0
 27 26  4  0
M  CHG  2   1   1  16   1
M  END
$$$$
