
     RDKit          3D

 33 37  0  0  0  0  0  0  0  0999 V2000
  -56.1450   24.5070    9.2000 N   0  0  0  0  0  4  0  0  0  0  0  0
  -57.4140   23.9620    8.6600 C   0  0  0  0  0  0  0  0  0  0  0  0
  -57.5040   24.2340    7.1490 C   0  0  0  0  0  0  0  0  0  0  0  0
  -58.5030   23.5540    6.4040 C   0  0  0  0  0  0  0  0  0  0  0  0
  -58.5910   23.6910    5.0100 C   0  0  0  0  0  0  0  0  0  0  0  0
  -57.6930   24.6230    4.3980 C   0  0  0  0  0  0  0  0  0  0  0  0
  -57.8630   24.8420    2.9240 C   0  0  0  0  0  0  0  0  0  0  0  0
  -58.0350   26.1550    2.5150 N   0  0  0  0  0  0  0  0  0  0  0  0
  -58.2010   26.5380    1.1610 C   0  0  0  0  0  0  0  0  0  0  0  0
  -58.1850   25.5690    0.1880 C   0  0  0  0  0  0  0  0  0  0  0  0
  -58.4180   25.9610   -1.1600 O   0  0  0  0  0  0  0  0  0  0  0  0
  -58.6950   24.7540   -2.0500 C   0  0  0  0  0  0  0  0  0  0  0  0
  -57.4610   24.6890   -2.9790 C   0  0  1  0  0  0  0  0  0  0  0  0
  -56.9500   23.2810   -3.4780 C   0  0  0  0  0  0  0  0  0  0  0  0
  -55.9090   23.4070   -4.6150 C   0  0  0  0  0  0  0  0  0  0  0  0
  -56.4450   24.4180   -5.6410 N   0  0  0  0  0  4  0  0  0  0  0  0
  -56.5850   25.7760   -5.0200 C   0  0  0  0  0  0  0  0  0  0  0  0
  -57.8200   25.7060   -4.0780 C   0  0  0  0  0  0  0  0  0  0  0  0
  -58.0150   24.2340    0.5610 N   0  0  0  0  0  0  0  0  0  0  0  0
  -57.9070   23.8030    1.9500 C   0  0  0  0  0  0  0  0  0  0  0  0
  -57.6310   22.3050    2.3150 C   0  0  0  0  0  0  0  0  0  0  0  0
  -56.7910   21.9850    3.4210 C   0  0  0  0  0  0  0  0  0  0  0  0
  -56.4720   20.6060    3.6980 C   0  0  0  0  0  0  0  0  0  0  0  0
  -57.0080   19.5520    2.8400 C   0  0  0  0  0  0  0  0  0  0  0  0
  -56.5840   18.1320    3.2090 C   0  0  0  0  0  0  0  0  0  0  0  0
  -56.6140   17.5890    4.5430 C   0  0  0  0  0  0  0  0  0  0  0  0
  -56.0860   16.3040    4.4010 N   0  0  0  0  0  0  0  0  0  0  0  0
  -55.7220   16.0160    3.0010 N   0  0  0  0  0  0  0  0  0  0  0  0
  -56.0080   17.2110    2.2650 C   0  0  0  0  0  0  0  0  0  0  0  0
  -57.7820   19.8520    1.6880 C   0  0  0  0  0  0  0  0  0  0  0  0
  -58.0790   21.2280    1.4280 C   0  0  0  0  0  0  0  0  0  0  0  0
  -56.7060   25.3920    5.1030 C   0  0  0  0  0  0  0  0  0  0  0  0
  -56.5980   25.2020    6.5630 C   0  0  0  0  0  0  0  0  0  0  0  0
  1  2  1  0
  2  3  1  0
  3  4  2  0
  3 33  1  0
  4  5  1  0
  5  6  2  0
  6 32  1  0
  6  7  1  0
 32 33  2  0
  7  8  2  0
  7 20  1  0
  8  9  1  0
  9 10  2  0
 10 11  1  0
 10 19  1  0
 11 12  1  0
 13 12  1  6
 13 14  1  0
 13 18  1  0
 14 15  1  0
 15 16  1  0
 16 17  1  0
 17 18  1  0
 19 20  2  0
 20 21  1  0
 21 22  2  0
 21 31  1  0
 22 23  1  0
 23 24  2  0
 24 30  1  0
 24 25  1  0
 30 31  2  0
 25 29  2  0
 25 26  1  0
 29 28  1  0
 28 27  1  0
 27 26  2  0
M  CHG  2   1   1  16   1
M  END
$$$$
