
     RDKit          3D

 27 29  0  0  0  0  0  0  0  0999 V2000
   34.5070    6.6440   73.5520 C   0  0  0  0  0  0  0  0  0  0  0  0
   33.3860    7.6410   73.7140 C   0  0  0  0  0  0  0  0  0  0  0  0
   32.3730    7.5540   73.0310 O   0  0  0  0  0  0  0  0  0  0  0  0
   33.6170    8.6300   74.6650 N   0  0  0  0  0  0  0  0  0  0  0  0
   32.6360    9.6840   74.9360 C   0  0  0  0  0  0  0  0  0  0  0  0
   31.6480    9.1860   75.9250 C   0  0  0  0  0  0  0  0  0  0  0  0
   30.6390    8.3980   75.4520 O   0  0  0  0  0  0  0  0  0  0  0  0
   29.8200    8.0030   76.5200 N   0  0  0  0  0  0  0  0  0  0  0  0
   30.3510    8.5600   77.6120 C   0  0  0  0  0  0  0  0  0  0  0  0
   29.7500    8.3760   78.9570 C   0  0  0  0  0  0  0  0  0  0  0  0
   31.5060    9.3120   77.2860 C   0  0  0  0  0  0  0  0  0  0  0  0
   32.3810   10.0800   78.1410 C   0  0  0  0  0  0  0  0  0  0  0  0
   33.7600    9.8530   78.1650 C   0  0  0  0  0  0  0  0  0  0  0  0
   34.5700   10.6260   79.0010 C   0  0  0  0  0  0  0  0  0  0  0  0
   34.0250   11.6180   79.8380 C   0  0  0  0  0  0  0  0  0  0  0  0
   34.9840   12.3890   80.7050 C   0  0  0  0  0  0  0  0  0  0  0  0
   32.6300   11.8270   79.8040 C   0  0  0  0  0  0  0  0  0  0  0  0
   31.7870   13.0340   80.8210 S   0  0  2  0  0  0  0  0  0  0  0  0
   32.1590   12.7340   82.1880 O   0  0  0  0  0  0  0  0  0  0  0  0
   30.3880   13.0180   80.4290 O   0  0  0  0  0  0  0  0  0  0  0  0
   32.4650   14.4980   80.3110 N   0  0  0  0  0  0  0  0  0  0  0  0
   31.9320   15.1900   79.1230 C   0  0  1  0  0  0  0  0  0  0  0  0
   31.1970   16.4420   79.5970 C   0  0  0  0  0  0  0  0  0  0  0  0
   32.3530   17.3570   79.9870 C   0  0  0  0  0  0  0  0  0  0  0  0
   33.4440   17.0830   78.9580 C   0  0  0  0  0  0  0  0  0  0  0  0
   33.0910   15.7480   78.3060 C   0  0  0  0  0  0  0  0  0  0  0  0
   31.8200   11.0630   78.9560 C   0  0  0  0  0  0  0  0  0  0  0  0
 27 12  2  0
 27 17  1  0
 12 13  1  0
 12 11  1  0
 13 14  2  0
 14 15  1  0
 15 17  2  0
 15 16  1  0
 17 18  1  0
 11  6  2  0
 11  9  1  0
 18 19  2  0
 18 20  2  0
 18 21  1  6
 22 21  1  1
 22 23  1  0
 22 26  1  0
 23 24  1  0
 24 25  1  0
 25 26  1  0
  6  7  1  0
  6  5  1  0
  7  8  1  0
  8  9  2  0
  9 10  1  0
  5  4  1  0
  4  2  1  0
  2  3  2  0
  2  1  1  0
M  END
$$$$
