
     RDKit          3D

 27 29  0  0  0  0  0  0  0  0999 V2000
   27.3782    9.5638   81.0505 C   0  0  0  0  0  0  0  0  0  0  0  0
   28.7474   10.2312   81.2011 C   0  0  0  0  0  0  0  0  0  0  0  0
   28.8433   11.1281   82.0553 O   0  0  0  0  0  0  0  0  0  0  0  0
   29.5998   10.1168   80.1064 N   0  0  0  0  0  0  0  0  0  0  0  0
   29.4122    9.0127   79.1441 C   0  0  0  0  0  0  0  0  0  0  0  0
   30.1314    9.3843   77.8981 C   0  0  0  0  0  0  0  0  0  0  0  0
   29.3475    9.4191   76.7407 O   0  0  0  0  0  0  0  0  0  0  0  0
   30.2480    9.3179   75.6562 N   0  0  0  0  0  0  0  0  0  0  0  0
   31.4989    9.4025   76.1419 C   0  0  0  0  0  0  0  0  0  0  0  0
   32.6966    9.3890   75.2690 C   0  0  0  0  0  0  0  0  0  0  0  0
   31.4289    9.5887   77.5405 C   0  0  0  0  0  0  0  0  0  0  0  0
   32.4268   10.2027   78.4005 C   0  0  0  0  0  0  0  0  0  0  0  0
   33.7727    9.8645   78.3185 C   0  0  0  0  0  0  0  0  0  0  0  0
   34.7307   10.8105   78.7169 C   0  0  0  0  0  0  0  0  0  0  0  0
   34.3745   12.0184   79.3327 C   0  0  0  0  0  0  0  0  0  0  0  0
   35.4732   12.9045   79.7387 C   0  0  0  0  0  0  0  0  0  0  0  0
   32.9916   12.1978   79.6537 C   0  0  0  0  0  0  0  0  0  0  0  0
   32.4900   13.1266   81.0919 S   0  0  1  0  0  0  0  0  0  0  0  0
   31.3193   12.4199   81.6097 O   0  0  0  0  0  0  0  0  0  0  0  0
   33.6334   13.2632   81.9622 O   0  0  0  0  0  0  0  0  0  0  0  0
   32.0783   14.6201   80.4621 N   0  0  0  0  0  0  0  0  0  0  0  0
   32.5504   15.0441   79.1625 C   0  0  2  0  0  0  0  0  0  0  0  0
   33.1916   16.4125   79.3045 C   0  0  0  0  0  0  0  0  0  0  0  0
   33.1645   16.9531   77.8934 C   0  0  0  0  0  0  0  0  0  0  0  0
   31.8249   16.4068   77.3135 C   0  0  0  0  0  0  0  0  0  0  0  0
   31.3623   15.2747   78.2426 C   0  0  0  0  0  0  0  0  0  0  0  0
   32.0415   11.3602   79.1091 C   0  0  0  0  0  0  0  0  0  0  0  0
 27 12  4  0
 27 17  4  0
 12 13  4  0
 12 11  1  0
 13 14  4  0
 14 15  4  0
 15 17  4  0
 15 16  1  0
 17 18  1  0
 11  6  4  0
 11  9  4  0
 18 19  2  0
 18 20  2  0
 18 21  1  1
 22 21  1  6
 22 23  1  0
 22 26  1  0
 23 24  1  0
 24 25  1  0
 25 26  1  0
  6  7  4  0
  6  5  1  0
  7  8  4  0
  8  9  4  0
  9 10  1  0
  5  4  1  0
  4  2  1  0
  2  3  2  0
  2  1  1  0
M  END
$$$$
