
     RDKit          3D

 26 29  0  0  0  0  0  0  0  0999 V2000
  113.1540   10.7390   11.4080 C   0  0  0  0  0  0  0  0  0  0  0  0
  113.9130    9.5230   11.0500 C   0  0  0  0  0  0  0  0  0  0  0  0
  114.8250    9.5440   10.0630 N   0  0  0  0  0  0  0  0  0  0  0  0
  115.3400    8.2570   10.0080 O   0  0  0  0  0  0  0  0  0  0  0  0
  114.7390    7.4750   10.9540 C   0  0  0  0  0  0  0  0  0  0  0  0
  115.1710    6.0680   11.0330 C   0  0  0  0  0  0  0  0  0  0  0  0
  113.8210    8.2390   11.6430 C   0  0  0  0  0  0  0  0  0  0  0  0
  112.9800    7.7600   12.7150 C   0  0  0  0  0  0  0  0  0  0  0  0
  112.2740    6.5710   12.5570 C   0  0  0  0  0  0  0  0  0  0  0  0
  111.4540    6.1070   13.5950 C   0  0  0  0  0  0  0  0  0  0  0  0
  110.6060    4.5580   13.3160 S   0  0  2  0  0  0  0  0  0  0  0  0
  110.9770    3.7030   14.4170 O   0  0  0  0  0  0  0  0  0  0  0  0
  110.8790    4.0990   11.9720 O   0  0  0  0  0  0  0  0  0  0  0  0
  108.9540    4.9050   13.4720 N   0  0  0  0  0  0  0  0  0  0  0  0
  108.2570    5.7870   12.5190 C   0  0  1  0  0  0  0  0  0  0  0  0
  106.8650    5.2140   12.2310 C   0  0  0  0  0  0  0  0  0  0  0  0
  105.9070    6.4090   12.2930 C   0  0  0  0  0  0  0  0  0  0  0  0
  106.7850    7.6480   12.4260 C   0  0  0  0  0  0  0  0  0  0  0  0
  107.9900    7.1300   13.1950 C   0  0  0  0  0  0  0  0  0  0  0  0
  111.3390    6.8420   14.8150 C   0  0  0  0  0  0  0  0  0  0  0  0
  110.5460    6.4900   15.9420 C   0  0  0  0  0  0  0  0  0  0  0  0
  110.5050    7.2930   17.0830 C   0  0  0  0  0  0  0  0  0  0  0  0
  111.2550    8.4510   17.0870 C   0  0  0  0  0  0  0  0  0  0  0  0
  112.0230    8.8360   16.0440 N   0  0  0  0  0  0  0  0  0  0  0  0
  112.0630    8.0580   14.9460 C   0  0  0  0  0  0  0  0  0  0  0  0
  112.8700    8.4900   13.9000 C   0  0  0  0  0  0  0  0  0  0  0  0
 25 26  2  0
 25 20  1  0
 25 24  1  0
 26  8  1  0
  8  9  2  0
  8  7  1  0
  9 10  1  0
 10 20  2  0
 10 11  1  0
 20 21  1  0
  7  5  2  0
  7  2  1  0
 11 14  1  6
 11 12  2  0
 11 13  2  0
 15 14  1  1
  5  4  1  0
  5  6  1  0
  4  3  1  0
  3  2  2  0
  2  1  1  0
 15 16  1  0
 15 19  1  0
 16 17  1  0
 17 18  1  0
 18 19  1  0
 24 23  2  0
 23 22  1  0
 22 21  2  0
M  END
$$$$
