
     RDKit          3D

 30 35  0  0  0  0  0  0  0  0999 V2000
    5.8790   59.0280   -7.7060 C   0  0  0  0  0  0  0  0  0  0  0  0
    4.7930   59.6370   -6.8540 C   0  0  0  0  0  0  0  0  0  0  0  0
    3.4650   59.5450   -7.2750 C   0  0  0  0  0  0  0  0  0  0  0  0
    2.4370   60.0920   -6.5100 C   0  0  0  0  0  0  0  0  0  0  0  0
    2.6800   60.7500   -5.3120 C   0  0  0  0  0  0  0  0  0  0  0  0
    1.6400   61.2600   -4.6290 N   0  0  0  0  0  0  0  0  0  0  0  0
    1.8780   61.9000   -3.4630 C   0  0  0  0  0  0  0  0  0  0  0  0
    3.1360   62.0650   -2.9280 C   0  0  0  0  0  0  0  0  0  0  0  0
    4.2090   61.5380   -3.6330 C   0  0  0  0  0  0  0  0  0  0  0  0
    4.0100   60.8580   -4.8610 C   0  0  0  0  0  0  0  0  0  0  0  0
    5.0660   60.3020   -5.6350 C   0  0  0  0  0  0  0  0  0  0  0  0
    6.4310   60.4340   -5.1400 C   0  0  0  0  0  0  0  0  0  0  0  0
    7.2470   61.5160   -5.4960 C   0  0  0  0  0  0  0  0  0  0  0  0
    8.5540   61.6360   -5.0160 C   0  0  0  0  0  0  0  0  0  0  0  0
    9.3460   62.7860   -5.4110 C   0  0  0  0  0  0  0  0  0  0  0  0
    9.9660   63.7920   -4.6270 C   0  0  0  0  0  0  0  0  0  0  0  0
    9.9920   63.9390   -3.1570 C   0  0  0  0  0  0  0  0  0  0  0  0
   10.5830   64.7000   -5.3900 N   0  0  0  0  0  0  0  0  0  0  0  0
   10.3800   64.2810   -6.6950 O   0  0  0  0  0  0  0  0  0  0  0  0
    9.6310   63.1460   -6.7110 C   0  0  0  0  0  0  0  0  0  0  0  0
    9.3190   62.5680   -8.0360 C   0  0  0  0  0  0  0  0  0  0  0  0
    9.0750   60.6650   -4.1450 C   0  0  0  0  0  0  0  0  0  0  0  0
    8.2690   59.5830   -3.7770 C   0  0  0  0  0  0  0  0  0  0  0  0
    8.5580   58.5220   -2.9640 N   0  0  0  0  0  0  0  0  0  0  0  0
    7.4660   57.7940   -2.9650 C   0  0  0  0  0  0  0  0  0  0  0  0
    7.3280   56.5210   -2.1800 C   0  0  2  0  0  0  0  0  0  0  0  0
    7.9510   56.4600   -0.8100 C   0  0  0  0  0  0  0  0  0  0  0  0
    8.5460   55.6710   -1.9360 C   0  0  0  0  0  0  0  0  0  0  0  0
    6.4730   58.3250   -3.7340 N   0  0  0  0  0  0  0  0  0  0  0  0
    6.9790   59.4850   -4.2750 C   0  0  0  0  0  0  0  0  0  0  0  0
 14 22  2  0
 14 13  1  0
 14 15  1  0
 22 23  1  0
 23 30  2  0
 23 24  1  0
 30 12  1  0
 30 29  1  0
 12 13  2  0
 12 11  1  0
 11 10  2  0
 11  2  1  0
 15 16  1  0
 15 20  2  0
 16 18  2  0
 16 17  1  0
 18 19  1  0
 19 20  1  0
 20 21  1  0
 24 25  1  0
 25 29  2  0
 26 25  1  6
 26 27  1  0
 26 28  1  0
 27 28  1  0
 10  5  1  0
 10  9  1  0
  5  4  2  0
  5  6  1  0
  4  3  1  0
  3  2  2  0
  2  1  1  0
  9  8  2  0
  8  7  1  0
  7  6  2  0
M  END
$$$$
