
     RDKit          3D

 29 31  0  0  0  0  0  0  0  0999 V2000
   88.8470  134.8590  123.9860 C   0  0  0  0  0  0  0  0  0  0  0  0
   89.0750  133.4460  123.8260 O   0  0  0  0  0  0  0  0  0  0  0  0
   88.1640  132.8920  122.9800 C   0  0  0  0  0  0  0  0  0  0  0  0
   87.3190  133.5610  122.3840 O   0  0  0  0  0  0  0  0  0  0  0  0
   88.1960  131.3700  122.6750 C   0  0  1  0  0  0  0  0  0  0  0  0
   89.3760  131.0420  121.8500 N   0  0  0  0  0  0  0  0  0  0  0  0
   89.4180  131.4800  120.5880 C   0  0  0  0  0  0  0  0  0  0  0  0
   88.4400  132.0500  120.0950 O   0  0  0  0  0  0  0  0  0  0  0  0
   90.5320  131.1620  119.8930 C   0  0  0  0  0  0  0  0  0  0  0  0
   91.5330  130.4650  120.4180 N   0  0  0  0  0  0  0  0  0  0  0  0
   92.4280  130.2980  119.4450 N   0  0  0  0  0  0  0  0  0  0  0  0
   93.7190  129.6350  119.4810 C   0  0  0  0  0  0  0  0  0  0  0  0
   94.6860  130.5660  119.8620 C   0  0  0  0  0  0  0  0  0  0  0  0
   94.5400  131.9410  119.8520 C   0  0  0  0  0  0  0  0  0  0  0  0
   95.5520  132.7860  120.2410 C   0  0  0  0  0  0  0  0  0  0  0  0
   96.7440  132.2360  120.6680 C   0  0  0  0  0  0  0  0  0  0  0  0
   97.5630  132.8980  120.9890 F   0  0  0  0  0  0  0  0  0  0  0  0
   96.9370  130.8790  120.7050 C   0  0  0  0  0  0  0  0  0  0  0  0
   95.8790  130.1230  120.2890 C   0  0  0  0  0  0  0  0  0  0  0  0
   91.9710  130.8590  118.3330 C   0  0  0  0  0  0  0  0  0  0  0  0
   92.5670  130.9570  117.1490 C   0  0  0  0  0  0  0  0  0  0  0  0
   91.9240  131.6180  116.1210 C   0  0  0  0  0  0  0  0  0  0  0  0
   90.6870  132.1790  116.3750 C   0  0  0  0  0  0  0  0  0  0  0  0
   90.1540  132.0570  117.6380 C   0  0  0  0  0  0  0  0  0  0  0  0
   90.7990  131.4130  118.6040 C   0  0  0  0  0  0  0  0  0  0  0  0
   88.1650  130.4180  123.8950 C   0  0  1  0  0  0  0  0  0  0  0  0
   86.8830  130.6750  124.6710 C   0  0  0  0  0  0  0  0  0  0  0  0
   88.1330  129.0010  123.3320 C   0  0  0  0  0  0  0  0  0  0  0  0
   89.3790  130.4730  124.8350 C   0  0  0  0  0  0  0  0  0  0  0  0
  5  6  1  1
  7  6  1  0
  5  3  1  0
  5 26  1  0
  3  4  2  0
  3  2  1  0
 26 27  1  1
 26 28  1  0
 26 29  1  0
  9  7  1  0
  7  8  2  0
  2  1  1  0
 25  9  1  0
  9 10  2  0
 12 13  1  0
 11 12  1  0
 13 14  2  0
 13 19  1  0
 14 15  1  0
 15 16  2  0
 18 16  1  0
 16 17  1  0
 19 18  2  0
 20 25  2  0
 20 21  1  0
 20 11  1  0
 25 24  1  0
 24 23  2  0
 23 22  1  0
 22 21  2  0
 10 11  1  0
M  END
$$$$
