
     RDKit          3D

 27 29  0  0  0  0  0  0  0  0999 V2000
   14.4590   32.1080  -18.1520 C   0  0  0  0  0  0  0  0  0  0  0  0
   14.8070   31.0470  -17.0960 C   0  0  1  0  0  0  0  0  0  0  0  0
   15.9640   30.2060  -17.6390 C   0  0  0  0  0  0  0  0  0  0  0  0
   15.2690   31.7390  -15.9370 O   0  0  0  0  0  0  0  0  0  0  0  0
   13.6160   30.1520  -16.6870 C   0  0  2  0  0  0  0  0  0  0  0  0
   12.3800   30.9860  -16.3120 C   0  0  0  0  0  0  0  0  0  0  0  0
   11.1740   30.0990  -16.0060 C   0  0  0  0  0  0  0  0  0  0  0  0
   11.4800   29.0930  -14.9030 C   0  0  1  0  0  0  0  0  0  0  0  0
   10.3320   28.2340  -14.6990 N   0  0  0  0  0  0  0  0  0  0  0  0
    9.4790   28.3670  -13.6080 C   0  0  0  0  0  0  0  0  0  0  0  0
    9.6350   29.2010  -12.7130 O   0  0  0  0  0  0  0  0  0  0  0  0
    8.3440   27.4080  -13.5030 C   0  0  0  0  0  0  0  0  0  0  0  0
    7.9470   26.9890  -12.2410 C   0  0  0  0  0  0  0  0  0  0  0  0
    6.9350   26.1150  -12.0280 N   0  0  0  0  0  0  0  0  0  0  0  0
    6.2770   25.6220  -13.0890 C   0  0  0  0  0  0  0  0  0  0  0  0
    5.2370   24.7420  -12.8710 C   0  0  0  0  0  0  0  0  0  0  0  0
    4.4890   24.1900  -13.9260 C   0  0  0  0  0  0  0  0  0  0  0  0
    3.5190   23.2740  -13.6320 O   0  0  0  0  0  0  0  0  0  0  0  0
    4.1200   22.2700  -12.7930 C   0  0  1  0  0  0  0  0  0  0  0  0
    3.3200   22.1510  -11.7130 F   0  0  0  0  0  0  0  0  0  0  0  0
    4.3500   21.1290  -13.4750 F   0  0  0  0  0  0  0  0  0  0  0  0
    4.7980   24.5120  -15.2420 C   0  0  0  0  0  0  0  0  0  0  0  0
    5.8450   25.4140  -15.4940 C   0  0  0  0  0  0  0  0  0  0  0  0
    6.5860   25.9760  -14.4260 C   0  0  0  0  0  0  0  0  0  0  0  0
    7.6510   26.8840  -14.6070 C   0  0  0  0  0  0  0  0  0  0  0  0
   12.7340   28.2790  -15.2140 C   0  0  0  0  0  0  0  0  0  0  0  0
   13.9200   29.2060  -15.5100 C   0  0  0  0  0  0  0  0  0  0  0  0
  2  1  1  6
  2  3  1  0
  5  6  1  1
  5  2  1  0
 27  5  1  0
 26 27  1  0
  8 26  1  0
  7  6  1  0
  8  7  1  0
 10 12  1  0
  9 10  1  0
 10 11  2  0
 12 13  2  0
 12 25  1  0
 13 14  1  0
 15 16  1  0
 24 15  1  0
 14 15  2  0
 16 17  2  0
 22 17  1  0
 17 18  1  0
 18 19  1  0
 19 20  1  1
 19 21  1  0
 23 22  2  0
 24 23  1  0
 25 24  2  0
  2  4  1  0
  8  9  1  6
M  END
$$$$
