
     RDKit          3D

 23 24  0  0  0  0  0  0  0  0999 V2000
   13.9200  -23.7930  -29.2670 N   0  0  0  0  0  0  0  0  0  0  0  0
   12.9170  -23.3600  -29.0020 N   0  0  0  0  0  0  0  0  0  0  0  0
   11.9230  -22.8920  -28.7620 N   0  0  0  0  0  0  0  0  0  0  0  0
   11.3000  -22.9150  -27.4230 C   0  0  2  0  0  0  0  0  0  0  0  0
    9.9870  -22.1710  -27.0710 C   0  0  2  0  0  0  0  0  0  0  0  0
   10.0680  -20.8070  -27.4810 O   0  0  0  0  0  0  0  0  0  0  0  0
   10.0690  -22.2750  -25.5290 C   0  0  1  0  0  0  0  0  0  0  0  0
    8.6950  -22.2110  -24.8510 C   0  0  0  0  0  0  0  0  0  0  0  0
    8.4080  -20.8250  -24.6220 O   0  0  0  0  0  0  0  0  0  0  0  0
    8.4030  -20.1260  -23.1680 P   0  0  1  0  0  0  0  0  0  0  0  0
    9.2940  -20.8700  -22.2510 O   0  0  0  0  0  0  0  0  0  0  0  0
    8.9320  -18.6100  -23.2950 O   0  0  0  0  0  0  0  0  0  0  0  0
    6.9060  -20.1080  -22.5790 O   0  0  0  0  0  0  0  0  0  0  0  0
   10.8420  -23.4680  -25.2530 O   0  0  0  0  0  0  0  0  0  0  0  0
   12.0010  -23.1100  -26.0460 C   0  0  1  0  0  0  0  0  0  0  0  0
   13.2270  -23.9230  -25.9660 N   0  0  0  0  0  0  0  0  0  0  0  0
   14.3780  -23.1910  -26.0460 C   0  0  0  0  0  0  0  0  0  0  0  0
   15.5810  -23.7850  -25.9750 C   0  0  0  0  0  0  0  0  0  0  0  0
   15.6300  -25.1860  -25.8050 C   0  0  0  0  0  0  0  0  0  0  0  0
   16.7130  -25.7410  -25.7380 O   0  0  0  0  0  0  0  0  0  0  0  0
   14.4760  -25.8850  -25.7190 N   0  0  0  0  0  0  0  0  0  0  0  0
   13.2790  -25.2610  -25.7930 C   0  0  0  0  0  0  0  0  0  0  0  0
   12.2560  -25.9150  -25.7140 O   0  0  0  0  0  0  0  0  0  0  0  0
  9 10  1  0
 10 11  2  0
 10 12  1  6
 10 13  1  0
 16 22  1  0
 16 17  1  0
 15 16  1  6
 22 23  2  0
 22 21  1  0
 21 19  1  0
 19 20  2  0
 18 19  1  0
 17 18  2  0
 15  4  1  0
 14 15  1  0
  5  4  1  0
  4  3  1  6
  5  6  1  1
  7  5  1  0
  3  2  2  3
  7 14  1  0
  7  8  1  1
  2  1  2  0
  8  9  1  0
M  CHG  2   1  -1   2   1
M  END
$$$$
