
     RDKit          3D

 23 24  0  0  0  0  0  0  0  0999 V2000
    6.9979  -25.2041  -22.2337 N   0  0  0  0  0  0  0  0  0  0  0  0
    6.7775  -25.2762  -23.4046 N   0  0  0  0  0  0  0  0  0  0  0  0
    7.3639  -25.0872  -24.4486 N   0  0  0  0  0  0  0  0  0  0  0  0
    8.3677  -24.0020  -24.4235 C   0  0  1  0  0  0  0  0  0  0  0  0
    8.1719  -22.6670  -23.6269 C   0  0  2  0  0  0  0  0  0  0  0  0
    7.7171  -21.6270  -24.4757 O   0  0  0  0  0  0  0  0  0  0  0  0
    9.6142  -22.4240  -23.2025 C   0  0  1  0  0  0  0  0  0  0  0  0
    9.7576  -21.5706  -21.8904 C   0  0  0  0  0  0  0  0  0  0  0  0
    8.7941  -20.5096  -22.0092 O   0  0  0  0  0  0  0  0  0  0  0  0
    9.0276  -19.0077  -21.4840 P   0  0  1  0  0  0  0  0  0  0  0  0
    9.7432  -18.2115  -22.5072 O   0  0  0  0  0  0  0  0  0  0  0  0
    7.5758  -18.3103  -21.1552 O   0  0  0  0  0  0  0  0  0  0  0  0
    9.8758  -19.0689  -20.0724 O   0  0  0  0  0  0  0  0  0  0  0  0
   10.2751  -23.6684  -23.1842 O   0  0  0  0  0  0  0  0  0  0  0  0
    9.9091  -24.0904  -24.5033 C   0  0  2  0  0  0  0  0  0  0  0  0
   10.6091  -23.4806  -25.6656 N   0  0  0  0  0  0  0  0  0  0  0  0
   11.4932  -22.4845  -25.3158 C   0  0  0  0  0  0  0  0  0  0  0  0
   12.3503  -21.9885  -26.2039 C   0  0  0  0  0  0  0  0  0  0  0  0
   12.2613  -22.4287  -27.5388 C   0  0  0  0  0  0  0  0  0  0  0  0
   12.6898  -21.6649  -28.4264 O   0  0  0  0  0  0  0  0  0  0  0  0
   11.3338  -23.3430  -27.8901 N   0  0  0  0  0  0  0  0  0  0  0  0
   10.5480  -23.9004  -26.9410 C   0  0  0  0  0  0  0  0  0  0  0  0
    9.9995  -24.9870  -27.1839 O   0  0  0  0  0  0  0  0  0  0  0  0
  9 10  1  0
 10 11  2  0
 10 12  1  1
 10 13  1  0
 16 22  4  0
 16 17  4  0
 15 16  1  1
 22 23  2  0
 22 21  4  0
 21 19  4  0
 19 20  2  0
 18 19  4  0
 17 18  4  0
 15  4  1  0
 14 15  1  0
  5  4  1  0
  4  3  1  6
  5  6  1  6
  7  5  1  0
  3  2  2  3
  7 14  1  0
  7  8  1  1
  2  1  2  0
  8  9  1  0
M  CHG  2   1  -1   2   1
M  END
$$$$
