
     RDKit          3D

 19 20  0  0  0  0  0  0  0  0999 V2000
  112.8800  -45.3020   45.8995 N   0  0  0  0  0  0  0  0  0  0  0  0
  112.8298  -45.5244   44.6745 N   0  0  0  0  0  0  0  0  0  0  0  0
  112.7129  -46.4064   43.8930 N   0  0  0  0  0  0  0  0  0  0  0  0
  111.4105  -46.8633   43.4850 C   0  0  1  0  0  0  0  0  0  0  0  0
  110.1763  -46.6477   44.4106 C   0  0  1  0  0  0  0  0  0  0  0  0
  109.8543  -45.2898   44.4552 O   0  0  0  0  0  0  0  0  0  0  0  0
  109.1366  -47.4776   43.6647 C   0  0  1  0  0  0  0  0  0  0  0  0
  107.7490  -46.7993   43.9376 C   0  0  0  0  0  0  0  0  0  0  0  0
  106.8477  -47.1237   42.8964 O   0  0  0  0  0  0  0  0  0  0  0  0
  109.5014  -47.4404   42.2415 O   0  0  0  0  0  0  0  0  0  0  0  0
  110.8953  -47.0747   42.0344 C   0  0  2  0  0  0  0  0  0  0  0  0
  111.5694  -48.1233   41.2663 N   0  0  0  0  0  0  0  0  0  0  0  0
  112.2645  -49.1289   41.9005 C   0  0  0  0  0  0  0  0  0  0  0  0
  112.7118  -50.1858   41.2437 C   0  0  0  0  0  0  0  0  0  0  0  0
  112.5330  -50.2412   39.8156 C   0  0  0  0  0  0  0  0  0  0  0  0
  113.1314  -51.0627   39.1539 O   0  0  0  0  0  0  0  0  0  0  0  0
  111.9089  -49.1939   39.2013 N   0  0  0  0  0  0  0  0  0  0  0  0
  111.3108  -48.2529   39.9511 C   0  0  0  0  0  0  0  0  0  0  0  0
  110.2322  -47.7901   39.5820 O   0  0  0  0  0  0  0  0  0  0  0  0
 12 18  4  0
 12 13  4  0
 11 12  1  6
 18 19  2  0
 18 17  4  0
 17 15  4  0
 15 16  2  0
 15 14  4  0
 14 13  4  0
 11  4  1  0
 11 10  1  0
  4  5  1  0
  4  3  1  1
  5  6  1  1
  5  7  1  0
  3  2  2  3
  7 10  1  0
  7  8  1  6
  2  1  2  0
  8  9  1  0
M  CHG  2   1  -1   2   1
M  END
$$$$
