
     RDKit          3D

 27 29  0  0  0  0  0  0  0  0999 V2000
    4.9290    6.6450  219.2630 C   0  0  0  0  0  0  0  0  0  0  0  0
    4.7150    7.9840  219.9760 C   0  0  0  0  0  0  0  0  0  0  0  0
    3.3330    8.2260  220.5570 C   0  0  0  0  0  0  0  0  0  0  0  0
    3.1530    9.5750  221.2820 C   0  0  0  0  0  0  0  0  0  0  0  0
    1.9880   10.2620  220.6640 N   0  0  0  0  0  0  0  0  0  0  0  0
    1.9420   10.9640  219.5410 C   0  0  0  0  0  0  0  0  0  0  0  0
    3.1400   11.1890  218.6070 C   0  0  0  0  0  0  0  0  0  0  0  0
    4.2820   11.8080  219.2310 C   0  0  0  0  0  0  0  0  0  0  0  0
    4.1560   12.9280  220.0730 C   0  0  0  0  0  0  0  0  0  0  0  0
    5.3000   13.5070  220.6400 C   0  0  0  0  0  0  0  0  0  0  0  0
    5.2600   14.5850  221.4790 O   0  0  0  0  0  0  0  0  0  0  0  0
    4.0470   15.3260  221.4410 C   0  0  0  0  0  0  0  0  0  0  0  0
    6.5520   12.9720  220.3620 C   0  0  0  0  0  0  0  0  0  0  0  0
    7.7140   13.4810  220.9150 O   0  0  0  0  0  0  0  0  0  0  0  0
    7.9780   14.8440  220.5790 C   0  0  0  0  0  0  0  0  0  0  0  0
    6.6800   11.8680  219.5430 C   0  0  0  0  0  0  0  0  0  0  0  0
    7.9620   11.4270  219.3420 O   0  0  0  0  0  0  0  0  0  0  0  0
    8.0760   10.3550  218.3860 C   0  0  0  0  0  0  0  0  0  0  0  0
    5.5510   11.2850  218.9710 C   0  0  0  0  0  0  0  0  0  0  0  0
    0.7030   11.4150  219.3310 N   0  0  0  0  0  0  0  0  0  0  0  0
   -0.0520   10.9900  220.3700 C   0  0  0  0  0  0  0  0  0  0  0  0
   -1.3670   11.1150  220.7120 C   0  0  0  0  0  0  0  0  0  0  0  0
   -2.2240   11.7870  219.9290 N   0  0  0  0  0  0  0  0  0  0  0  0
   -1.8090   10.5840  221.8510 N   0  0  0  0  0  0  0  0  0  0  0  0
   -0.9730    9.8770  222.6940 C   0  0  0  0  0  0  0  0  0  0  0  0
    0.3520    9.7170  222.3340 N   0  0  0  0  0  0  0  0  0  0  0  0
    0.7640   10.2800  221.1870 C   0  0  0  0  0  0  0  0  0  0  0  0
 27 21  1  0
 27 26  2  0
  5 27  1  0
 21 22  2  0
 20 21  1  0
 22 24  1  0
 22 23  1  0
  5  6  1  0
  6 20  2  0
  6  7  1  0
 25 24  2  0
 26 25  1  0
  2  1  1  0
  3  2  1  0
  4  3  1  0
  4  5  1  0
  7  8  1  0
  8 19  2  0
  8  9  1  0
 19 16  1  0
  9 10  2  0
 10 11  1  0
 10 13  1  0
 11 12  1  0
 13 14  1  0
 13 16  2  0
 14 15  1  0
 16 17  1  0
 17 18  1  0
M  END
$$$$
