
     RDKit          3D

 27 29  0  0  0  0  0  0  0  0999 V2000
    4.5483    6.7959  220.0120 C   0  0  0  0  0  0  0  0  0  0  0  0
    3.2900    7.6188  219.7509 C   0  0  0  0  0  0  0  0  0  0  0  0
    2.9227    8.6308  220.7439 C   0  0  0  0  0  0  0  0  0  0  0  0
    3.2684   10.1019  220.3657 C   0  0  0  0  0  0  0  0  0  0  0  0
    1.9610   10.7902  220.1125 N   0  0  0  0  0  0  0  0  0  0  0  0
    1.5358   11.4222  219.0008 C   0  0  0  0  0  0  0  0  0  0  0  0
    2.4147   12.4555  218.2440 C   0  0  0  0  0  0  0  0  0  0  0  0
    3.7090   12.6732  218.7930 C   0  0  0  0  0  0  0  0  0  0  0  0
    4.7508   11.7421  218.7313 C   0  0  0  0  0  0  0  0  0  0  0  0
    5.9897   12.0251  219.3237 C   0  0  0  0  0  0  0  0  0  0  0  0
    7.0945   11.2535  219.2152 O   0  0  0  0  0  0  0  0  0  0  0  0
    8.3263   11.9356  219.1465 C   0  0  0  0  0  0  0  0  0  0  0  0
    6.1719   13.3085  219.9714 C   0  0  0  0  0  0  0  0  0  0  0  0
    7.4566   13.8340  220.0945 O   0  0  0  0  0  0  0  0  0  0  0  0
    7.4878   15.2584  220.0813 C   0  0  0  0  0  0  0  0  0  0  0  0
    5.0762   14.1022  220.1783 C   0  0  0  0  0  0  0  0  0  0  0  0
    5.3520   15.2446  220.8235 O   0  0  0  0  0  0  0  0  0  0  0  0
    4.4037   16.3098  220.6203 C   0  0  0  0  0  0  0  0  0  0  0  0
    3.8621   13.8156  219.6194 C   0  0  0  0  0  0  0  0  0  0  0  0
    0.2148   11.3302  218.9031 N   0  0  0  0  0  0  0  0  0  0  0  0
   -0.2114   10.8859  220.1170 C   0  0  0  0  0  0  0  0  0  0  0  0
   -1.4520   10.8115  220.7157 C   0  0  0  0  0  0  0  0  0  0  0  0
   -2.5197   11.0166  220.0028 N   0  0  0  0  0  0  0  0  0  0  0  0
   -1.5199   10.6713  222.0411 N   0  0  0  0  0  0  0  0  0  0  0  0
   -0.4173   10.6268  222.8436 C   0  0  0  0  0  0  0  0  0  0  0  0
    0.8119   10.5826  222.2085 N   0  0  0  0  0  0  0  0  0  0  0  0
    0.8839   10.6990  220.8851 C   0  0  0  0  0  0  0  0  0  0  0  0
 27 21  4  0
 27 26  4  0
  5 27  4  0
 21 22  4  0
 20 21  4  0
 22 24  4  0
 22 23  1  0
  5  6  4  0
  6 20  4  0
  6  7  1  0
 25 24  4  0
 26 25  4  0
  2  1  1  0
  3  2  1  0
  4  3  1  0
  4  5  1  0
  7  8  1  0
  8 19  4  0
  8  9  4  0
 19 16  4  0
  9 10  4  0
 10 11  1  0
 10 13  4  0
 11 12  1  0
 13 14  1  0
 13 16  4  0
 14 15  1  0
 16 17  1  0
 17 18  1  0
M  END
$$$$
