
     RDKit          3D

 55 57  0  0  0  0  0  0  0  0999 V2000
   33.6600   14.7410   16.8670 C   0  0  0  0  0  0  0  0  0  0  0  0
   32.2440   14.5740   16.3470 C   0  0  0  0  0  0  0  0  0  0  0  0
   31.1500   15.3690   16.9260 C   0  0  0  0  0  0  0  0  0  0  0  0
   31.2500   16.0690   17.9370 O   0  0  0  0  0  0  0  0  0  0  0  0
   29.7260   15.4450   16.0030 S   0  0  0  0  0  0  0  0  0  0  0  0
   28.7530   16.6910   16.8450 C   0  0  0  0  0  0  0  0  0  0  0  0
   28.0720   15.9870   18.0060 C   0  0  0  0  0  0  0  0  0  0  0  0
   27.1090   16.8210   18.6500 N   0  0  0  0  0  0  0  0  0  0  0  0
   25.8610   16.4000   18.9220 C   0  0  0  0  0  0  0  0  0  0  0  0
   25.4180   15.2880   18.6320 O   0  0  0  0  0  0  0  0  0  0  0  0
   24.9380   17.3630   19.6240 C   0  0  0  0  0  0  0  0  0  0  0  0
   23.8770   17.8050   18.6500 C   0  0  0  0  0  0  0  0  0  0  0  0
   22.9460   18.7350   19.2650 N   0  0  0  0  0  0  0  0  0  0  0  0
   21.9780   18.3080   20.0370 C   0  0  0  0  0  0  0  0  0  0  0  0
   21.8030   17.1310   20.3700 O   0  0  0  0  0  0  0  0  0  0  0  0
   21.1300   19.3850   20.6010 C   0  0  2  0  0  0  0  0  0  0  0  0
   21.2500   20.5220   19.7700 O   0  0  0  0  0  0  0  0  0  0  0  0
   21.5290   19.7500   22.0620 C   0  0  1  0  0  0  0  0  0  0  0  0
   21.1780   18.7130   23.1160 C   0  0  0  0  0  0  0  0  0  0  0  0
   23.0470   19.9630   22.1720 C   0  0  0  0  0  0  0  0  0  0  0  0
   20.7840   21.0430   22.4130 C   0  0  0  0  0  0  0  0  0  0  0  0
   19.3880   20.8380   22.2230 O   0  0  0  0  0  0  0  0  0  0  0  0
   18.4600   22.1850   22.2050 P   0  0  1  0  0  0  0  0  0  0  0  0
   17.1010   21.6660   22.0680 O   0  0  0  0  0  0  0  0  0  0  0  0
   18.6340   22.9000   23.4930 O   0  0  0  0  0  0  0  0  0  0  0  0
   18.9770   23.2930   21.1870 O   0  0  0  0  0  0  0  0  0  0  0  0
   18.9020   23.1740   19.5760 P   0  0  1  0  0  0  0  0  0  0  0  0
   18.7190   21.7860   19.1330 O   0  0  0  0  0  0  0  0  0  0  0  0
   17.6640   23.9860   19.2310 O   0  0  0  0  0  0  0  0  0  0  0  0
   20.1630   23.9290   18.9770 O   0  0  0  0  0  0  0  0  0  0  0  0
   20.4580   25.3220   19.1520 C   0  0  0  0  0  0  0  0  0  0  0  0
   21.1010   25.7170   17.8170 C   0  0  1  0  0  0  0  0  0  0  0  0
   22.4540   25.2240   17.8770 O   0  0  0  0  0  0  0  0  0  0  0  0
   22.5720   24.2650   16.7970 C   0  0  1  0  0  0  0  0  0  0  0  0
   23.5130   23.1630   17.1810 N   0  0  0  0  0  0  0  0  0  0  0  0
   23.4080   22.3030   18.2280 C   0  0  0  0  0  0  0  0  0  0  0  0
   24.4810   21.4340   18.2580 N   0  0  0  0  0  0  0  0  0  0  0  0
   25.2720   21.8140   17.2340 C   0  0  0  0  0  0  0  0  0  0  0  0
   26.5220   21.3520   16.7390 C   0  0  0  0  0  0  0  0  0  0  0  0
   27.1480   20.3420   17.3800 N   0  0  0  0  0  0  0  0  0  0  0  0
   27.0310   21.9620   15.6450 N   0  0  0  0  0  0  0  0  0  0  0  0
   26.3970   22.9890   15.0370 C   0  0  0  0  0  0  0  0  0  0  0  0
   25.2140   23.5100   15.4440 N   0  0  0  0  0  0  0  0  0  0  0  0
   24.6480   22.9540   16.5170 C   0  0  0  0  0  0  0  0  0  0  0  0
   21.2180   23.7360   16.4220 C   0  0  2  0  0  0  0  0  0  0  0  0
   21.1730   23.2500   15.0740 O   0  0  0  0  0  0  0  0  0  0  0  0
   20.4150   25.0160   16.6490 C   0  0  2  0  0  0  0  0  0  0  0  0
   20.4600   25.7710   15.4380 O   0  0  0  0  0  0  0  0  0  0  0  0
   19.2530   26.8070   15.0130 P   0  0  1  0  0  0  0  0  0  0  0  0
   19.7240   27.2350   13.6660 O   0  0  0  0  0  0  0  0  0  0  0  0
   18.0340   25.9320   15.0120 O   0  0  0  0  0  0  0  0  0  0  0  0
   19.3150   27.8990   16.0390 O   0  0  0  0  0  0  0  0  0  0  0  0
   32.0060   13.7460   15.3700 N   0  0  0  0  0  0  0  0  0  0  0  0
   30.8990   13.6270   14.8930 O   0  0  0  0  0  0  0  0  0  0  0  0
   32.8780   13.0120   14.9760 O   0  0  0  0  0  0  0  0  0  0  0  0
 41 42  2  0
 41 39  1  0
 42 43  1  0
 43 44  2  0
 44 38  1  0
 44 35  1  0
 38 39  2  0
 38 37  1  0
 39 40  1  0
 37 36  2  0
 36 35  1  0
 34 35  1  1
 34 45  1  0
 34 33  1  0
 45 46  1  6
 45 47  1  0
 47 48  1  6
 47 32  1  0
 48 49  1  0
 32 33  1  0
 32 31  1  1
 31 30  1  0
 30 27  1  0
 49 50  2  0
 49 51  1  6
 49 52  1  0
 27 29  1  6
 27 28  2  0
 27 26  1  0
 26 23  1  0
 23 25  1  1
 23 24  2  0
 23 22  1  0
 22 21  1  0
 21 18  1  0
 18 19  1  1
 18 20  1  0
 18 16  1  0
 16 17  1  6
 16 14  1  0
 14 15  2  0
 14 13  1  0
 13 12  1  0
 12 11  1  0
 11  9  1  0
  9 10  2  0
  9  8  1  0
  8  7  1  0
  7  6  1  0
  6  5  1  0
  5  3  1  0
  3  4  2  0
  3  2  1  0
  2  1  1  0
  2 53  1  0
 53 55  1  0
 53 54  2  0
M  CHG  2  53   1  55  -1
M  END
$$$$
