
     RDKit          3D

 48 50  0  0  0  0  0  0  0  0999 V2000
   21.1780   18.5830   23.1400 C   0  0  0  0  0  0  0  0  0  0  0  0
   21.6000   19.6770   22.1640 C   0  0  2  0  0  0  0  0  0  0  0  0
   23.1050   19.9580   22.2820 C   0  0  0  0  0  0  0  0  0  0  0  0
   20.8540   20.9370   22.5390 C   0  0  0  0  0  0  0  0  0  0  0  0
   19.5090   20.7900   22.1460 O   0  0  0  0  0  0  0  0  0  0  0  0
   18.5900   22.1240   22.0490 P   0  0  1  0  0  0  0  0  0  0  0  0
   17.2730   21.5590   21.6580 O   0  0  0  0  0  0  0  0  0  0  0  0
   18.6160   22.8850   23.3450 O   0  0  0  0  0  0  0  0  0  0  0  0
   19.0430   23.3430   21.1010 O   0  0  0  0  0  0  0  0  0  0  0  0
   19.1480   23.3340   19.4790 P   0  0  2  0  0  0  0  0  0  0  0  0
   18.0870   24.3550   19.1190 O   0  0  0  0  0  0  0  0  0  0  0  0
   18.9610   21.9060   18.9620 O   0  0  0  0  0  0  0  0  0  0  0  0
   20.5150   24.0800   19.0840 O   0  0  0  0  0  0  0  0  0  0  0  0
   20.7750   25.4980   19.1440 C   0  0  0  0  0  0  0  0  0  0  0  0
   21.4510   25.8720   17.8080 C   0  0  1  0  0  0  0  0  0  0  0  0
   22.8350   25.4150   17.8320 O   0  0  0  0  0  0  0  0  0  0  0  0
   22.9060   24.3740   16.8030 C   0  0  1  0  0  0  0  0  0  0  0  0
   23.7760   23.2460   17.1910 N   0  0  0  0  0  0  0  0  0  0  0  0
   23.6210   22.3900   18.2290 C   0  0  0  0  0  0  0  0  0  0  0  0
   24.6590   21.5120   18.2540 N   0  0  0  0  0  0  0  0  0  0  0  0
   25.4630   21.8250   17.2290 C   0  0  0  0  0  0  0  0  0  0  0  0
   26.6820   21.3030   16.7300 C   0  0  0  0  0  0  0  0  0  0  0  0
   27.2430   20.2720   17.3820 N   0  0  0  0  0  0  0  0  0  0  0  0
   27.2090   21.8810   15.6550 N   0  0  0  0  0  0  0  0  0  0  0  0
   26.6290   22.9330   15.0370 C   0  0  0  0  0  0  0  0  0  0  0  0
   25.4850   23.5090   15.4380 N   0  0  0  0  0  0  0  0  0  0  0  0
   24.8770   22.9740   16.5090 C   0  0  0  0  0  0  0  0  0  0  0  0
   21.5260   23.8430   16.4550 C   0  0  2  0  0  0  0  0  0  0  0  0
   21.4720   23.2610   15.1350 O   0  0  0  0  0  0  0  0  0  0  0  0
   20.7450   25.1390   16.6560 C   0  0  2  0  0  0  0  0  0  0  0  0
   20.7710   25.8480   15.4260 O   0  0  0  0  0  0  0  0  0  0  0  0
   19.5360   26.7920   14.9020 P   0  0  2  0  0  0  0  0  0  0  0  0
   20.1320   27.2340   13.6160 O   0  0  0  0  0  0  0  0  0  0  0  0
   19.4170   27.9110   15.9070 O   0  0  0  0  0  0  0  0  0  0  0  0
   18.3630   25.8570   14.7180 O   0  0  0  0  0  0  0  0  0  0  0  0
   21.2100   19.3270   20.7130 C   0  0  1  0  0  0  0  0  0  0  0  0
   21.4610   20.4630   19.9150 O   0  0  0  0  0  0  0  0  0  0  0  0
   22.0790   18.2800   20.1910 C   0  0  0  0  0  0  0  0  0  0  0  0
   22.1030   17.1470   20.6850 O   0  0  0  0  0  0  0  0  0  0  0  0
   22.8820   18.8270   19.2920 N   0  0  0  0  0  0  0  0  0  0  0  0
   24.0730   18.2150   18.7330 C   0  0  0  0  0  0  0  0  0  0  0  0
   24.7840   17.2040   19.6010 C   0  0  0  0  0  0  0  0  0  0  0  0
   25.7740   16.4360   18.7440 C   0  0  0  0  0  0  0  0  0  0  0  0
   25.4690   15.3580   18.2560 O   0  0  0  0  0  0  0  0  0  0  0  0
   26.9930   16.9560   18.6790 N   0  0  0  0  0  0  0  0  0  0  0  0
   28.1760   16.1750   18.4270 C   0  0  0  0  0  0  0  0  0  0  0  0
   28.6700   16.1530   16.9960 C   0  0  0  0  0  0  0  0  0  0  0  0
   29.5340   15.0280   16.7280 O   0  0  0  0  0  0  0  0  0  0  0  0
 24 25  2  0
 24 22  1  0
 25 26  1  0
 26 27  2  0
 27 21  1  0
 27 18  1  0
 21 22  2  0
 21 20  1  0
 22 23  1  0
 20 19  2  0
 19 18  1  0
 17 18  1  1
 17 28  1  0
 17 16  1  0
 28 29  1  6
 28 30  1  0
 30 31  1  6
 30 15  1  0
 31 32  1  0
 15 16  1  0
 15 14  1  1
 14 13  1  0
 13 10  1  0
 32 34  1  1
 32 33  2  0
 32 35  1  0
 10 11  2  0
 10 12  1  6
 10  9  1  0
  9  6  1  0
  6  7  2  0
  6  8  1  1
  6  5  1  0
  5  4  1  0
  4  2  1  0
  2  1  1  1
  2  3  1  0
  2 36  1  0
 36 37  1  6
 36 38  1  0
 38 39  2  0
 38 40  1  0
 40 41  1  0
 41 42  1  0
 42 43  1  0
 43 44  2  0
 43 45  1  0
 45 46  1  0
 46 47  1  0
 47 48  1  0
M  END
$$$$
