
     RDKit          3D

 48 50  0  0  0  0  0  0  0  0999 V2000
   22.5520   18.0250   21.0405 C   0  0  0  0  0  0  0  0  0  0  0  0
   23.0521   19.2935   20.4128 C   0  0  2  0  0  0  0  0  0  0  0  0
   24.2733   19.8575   21.1673 C   0  0  0  0  0  0  0  0  0  0  0  0
   21.8997   20.3005   20.4966 C   0  0  0  0  0  0  0  0  0  0  0  0
   20.7608   19.7764   19.9041 O   0  0  0  0  0  0  0  0  0  0  0  0
   20.0147   20.6704   18.7537 P   0  0  2  0  0  0  0  0  0  0  0  0
   18.6316   20.0338   18.7822 O   0  0  0  0  0  0  0  0  0  0  0  0
   20.7167   20.5933   17.4392 O   0  0  0  0  0  0  0  0  0  0  0  0
   19.9786   22.2592   18.8819 O   0  0  0  0  0  0  0  0  0  0  0  0
   18.6908   23.1940   19.2298 P   0  0  2  0  0  0  0  0  0  0  0  0
   17.5936   22.2018   19.2804 O   0  0  0  0  0  0  0  0  0  0  0  0
   18.6427   24.3405   18.2425 O   0  0  0  0  0  0  0  0  0  0  0  0
   18.8203   23.6170   20.7956 O   0  0  0  0  0  0  0  0  0  0  0  0
   19.8451   24.4067   21.4133 C   0  0  0  0  0  0  0  0  0  0  0  0
   20.4514   25.2443   20.2816 C   0  0  1  0  0  0  0  0  0  0  0  0
   21.8588   24.8761   20.0586 O   0  0  0  0  0  0  0  0  0  0  0  0
   21.8669   24.1905   18.7992 C   0  0  1  0  0  0  0  0  0  0  0  0
   22.7457   22.9922   18.8674 N   0  0  0  0  0  0  0  0  0  0  0  0
   22.5572   21.8678   19.6357 C   0  0  0  0  0  0  0  0  0  0  0  0
   23.4777   20.9611   19.2701 N   0  0  0  0  0  0  0  0  0  0  0  0
   24.2890   21.4936   18.3290 C   0  0  0  0  0  0  0  0  0  0  0  0
   25.5045   21.1028   17.7717 C   0  0  0  0  0  0  0  0  0  0  0  0
   25.7933   19.8146   17.6618 N   0  0  0  0  0  0  0  0  0  0  0  0
   26.3165   22.0957   17.2925 N   0  0  0  0  0  0  0  0  0  0  0  0
   25.9150   23.3982   17.2395 C   0  0  0  0  0  0  0  0  0  0  0  0
   24.7022   23.8118   17.5765 N   0  0  0  0  0  0  0  0  0  0  0  0
   23.8562   22.9149   18.1861 C   0  0  0  0  0  0  0  0  0  0  0  0
   20.5696   23.8416   18.2955 C   0  0  2  0  0  0  0  0  0  0  0  0
   20.4173   23.7221   16.8443 O   0  0  0  0  0  0  0  0  0  0  0  0
   19.7051   24.9372   18.9455 C   0  0  2  0  0  0  0  0  0  0  0  0
   19.6437   26.0407   18.0146 O   0  0  0  0  0  0  0  0  0  0  0  0
   18.7303   26.0173   16.6760 P   0  0  1  0  0  0  0  0  0  0  0  0
   18.0766   27.3389   16.8677 O   0  0  0  0  0  0  0  0  0  0  0  0
   19.6808   26.0035   15.4983 O   0  0  0  0  0  0  0  0  0  0  0  0
   17.8193   24.8785   16.8707 O   0  0  0  0  0  0  0  0  0  0  0  0
   23.3344   19.1227   18.9123 C   0  0  1  0  0  0  0  0  0  0  0  0
   24.2042   20.1405   18.5187 O   0  0  0  0  0  0  0  0  0  0  0  0
   24.0852   17.8695   18.6787 C   0  0  0  0  0  0  0  0  0  0  0  0
   23.5244   16.8463   18.3168 O   0  0  0  0  0  0  0  0  0  0  0  0
   25.3741   18.1378   18.8360 N   0  0  0  0  0  0  0  0  0  0  0  0
   26.4633   17.6598   17.9945 C   0  0  0  0  0  0  0  0  0  0  0  0
   27.4890   16.7511   18.6707 C   0  0  0  0  0  0  0  0  0  0  0  0
   28.6113   16.5034   17.6485 C   0  0  0  0  0  0  0  0  0  0  0  0
   28.3731   16.5985   16.4643 O   0  0  0  0  0  0  0  0  0  0  0  0
   29.6844   15.9190   18.2098 N   0  0  0  0  0  0  0  0  0  0  0  0
   31.0485   16.3980   17.9805 C   0  0  0  0  0  0  0  0  0  0  0  0
   32.1316   15.3791   17.9440 C   0  0  0  0  0  0  0  0  0  0  0  0
   33.4414   15.9137   17.9432 O   0  0  0  0  0  0  0  0  0  0  0  0
 24 25  4  0
 24 22  4  0
 25 26  4  0
 26 27  4  0
 27 21  4  0
 27 18  4  0
 21 22  4  0
 21 20  4  0
 22 23  1  0
 20 19  4  0
 19 18  4  0
 17 18  1  1
 17 28  1  0
 17 16  1  0
 28 29  1  6
 28 30  1  0
 30 31  1  6
 30 15  1  0
 31 32  1  0
 15 16  1  0
 15 14  1  1
 14 13  1  0
 13 10  1  0
 32 34  1  1
 32 33  2  0
 32 35  1  0
 10 11  2  0
 10 12  1  6
 10  9  1  0
  9  6  1  0
  6  7  2  0
  6  8  1  1
  6  5  1  0
  5  4  1  0
  4  2  1  0
  2  1  1  1
  2  3  1  0
  2 36  1  0
 36 37  1  1
 36 38  1  0
 38 39  2  0
 38 40  1  0
 40 41  1  0
 41 42  1  0
 42 43  1  0
 43 44  2  0
 43 45  1  0
 45 46  1  0
 46 47  1  0
 47 48  1  0
M  END
$$$$
