
     RDKit          3D

 55 57  0  0  0  0  0  0  0  0999 V2000
   33.0430   14.7160   16.7310 C   0  0  0  0  0  0  0  0  0  0  0  0
   31.5410   14.5890   16.5870 C   0  0  1  0  0  0  0  0  0  0  0  0
   30.7080   15.6340   17.2300 C   0  0  0  0  0  0  0  0  0  0  0  0
   31.2120   16.4200   18.0090 O   0  0  0  0  0  0  0  0  0  0  0  0
   29.3000   15.7140   16.8120 N   0  0  0  0  0  0  0  0  0  0  0  0
   28.4350   16.8130   17.2530 C   0  0  0  0  0  0  0  0  0  0  0  0
   27.7080   16.2650   18.4210 C   0  0  0  0  0  0  0  0  0  0  0  0
   26.6960   17.1300   18.9280 N   0  0  0  0  0  0  0  0  0  0  0  0
   25.4120   16.8120   18.9790 C   0  0  0  0  0  0  0  0  0  0  0  0
   24.9810   15.7890   18.5110 O   0  0  0  0  0  0  0  0  0  0  0  0
   24.4410   17.7720   19.6250 C   0  0  0  0  0  0  0  0  0  0  0  0
   23.5810   18.3880   18.5530 C   0  0  0  0  0  0  0  0  0  0  0  0
   22.6750   19.3640   19.1120 N   0  0  0  0  0  0  0  0  0  0  0  0
   21.6580   18.9680   19.8660 C   0  0  0  0  0  0  0  0  0  0  0  0
   21.4560   17.7810   20.1660 O   0  0  0  0  0  0  0  0  0  0  0  0
   20.8470   20.0610   20.4560 C   0  0  2  0  0  0  0  0  0  0  0  0
   21.2210   21.2500   19.7870 O   0  0  0  0  0  0  0  0  0  0  0  0
   21.1140   20.1930   21.9730 C   0  0  1  0  0  0  0  0  0  0  0  0
   20.5470   19.0110   22.7500 C   0  0  0  0  0  0  0  0  0  0  0  0
   22.6070   20.3090   22.2570 C   0  0  0  0  0  0  0  0  0  0  0  0
   20.5110   21.4550   22.5120 C   0  0  0  0  0  0  0  0  0  0  0  0
   19.1620   21.4300   22.1540 O   0  0  0  0  0  0  0  0  0  0  0  0
   18.3440   22.8280   22.0860 P   0  0  1  0  0  0  0  0  0  0  0  0
   16.9470   22.4750   21.6960 O   0  0  0  0  0  0  0  0  0  0  0  0
   18.4220   23.4710   23.4340 O   0  0  0  0  0  0  0  0  0  0  0  0
   18.9040   24.0510   21.1810 O   0  0  0  0  0  0  0  0  0  0  0  0
   19.1120   24.1910   19.5670 P   0  0  2  0  0  0  0  0  0  0  0  0
   18.2320   25.3080   19.0480 O   0  0  0  0  0  0  0  0  0  0  0  0
   18.8330   22.7890   19.0500 O   0  0  0  0  0  0  0  0  0  0  0  0
   20.5170   24.8180   19.1570 O   0  0  0  0  0  0  0  0  0  0  0  0
   20.9750   26.1700   19.2300 C   0  0  0  0  0  0  0  0  0  0  0  0
   21.6390   26.4600   17.8870 C   0  0  1  0  0  0  0  0  0  0  0  0
   22.9970   25.9200   17.8630 O   0  0  0  0  0  0  0  0  0  0  0  0
   22.9250   24.8630   16.8360 C   0  0  1  0  0  0  0  0  0  0  0  0
   23.7410   23.6760   17.2560 N   0  0  0  0  0  0  0  0  0  0  0  0
   23.5620   22.8520   18.3470 C   0  0  0  0  0  0  0  0  0  0  0  0
   24.5250   21.9110   18.3690 N   0  0  0  0  0  0  0  0  0  0  0  0
   25.3250   22.1630   17.2940 C   0  0  0  0  0  0  0  0  0  0  0  0
   26.5010   21.5690   16.7420 C   0  0  0  0  0  0  0  0  0  0  0  0
   27.0560   20.5440   17.3970 N   0  0  0  0  0  0  0  0  0  0  0  0
   26.9890   22.0890   15.5960 N   0  0  0  0  0  0  0  0  0  0  0  0
   26.4520   23.1910   14.9690 C   0  0  0  0  0  0  0  0  0  0  0  0
   25.3440   23.7870   15.4100 N   0  0  0  0  0  0  0  0  0  0  0  0
   24.7850   23.3140   16.5500 C   0  0  0  0  0  0  0  0  0  0  0  0
   21.4920   24.4370   16.5340 C   0  0  2  0  0  0  0  0  0  0  0  0
   21.2830   23.7860   15.2410 O   0  0  0  0  0  0  0  0  0  0  0  0
   20.8360   25.7900   16.7550 C   0  0  2  0  0  0  0  0  0  0  0  0
   20.9160   26.5220   15.5390 O   0  0  0  0  0  0  0  0  0  0  0  0
   19.7040   27.5230   15.0580 P   0  0  2  0  0  0  0  0  0  0  0  0
   20.2920   27.9820   13.7430 O   0  0  0  0  0  0  0  0  0  0  0  0
   19.7220   28.6580   16.0770 O   0  0  0  0  0  0  0  0  0  0  0  0
   18.4600   26.6390   15.0630 O   0  0  0  0  0  0  0  0  0  0  0  0
   31.0270   13.6810   15.8460 N   0  0  0  0  0  0  0  0  0  0  0  0
   31.7400   12.8490   15.3370 O   0  0  0  0  0  0  0  0  0  0  0  0
   29.8500   13.7100   15.5380 O   0  0  0  0  0  0  0  0  0  0  0  0
 41 42  2  0
 41 39  1  0
 42 43  1  0
 43 44  2  0
 44 38  1  0
 44 35  1  0
 38 39  2  0
 38 37  1  0
 39 40  1  0
 37 36  2  0
 36 35  1  0
 34 35  1  1
 34 45  1  0
 34 33  1  0
 45 46  1  6
 45 47  1  0
 47 48  1  6
 47 32  1  0
 48 49  1  0
 32 33  1  0
 32 31  1  1
 31 30  1  0
 30 27  1  0
 49 50  2  0
 49 51  1  1
 49 52  1  0
 27 29  1  6
 27 28  2  0
 27 26  1  0
 26 23  1  0
 23 24  2  0
 23 25  1  1
 23 22  1  0
 22 21  1  0
 21 18  1  0
 18 19  1  1
 18 20  1  0
 18 16  1  0
 16 17  1  6
 16 14  1  0
 14 15  2  0
 14 13  1  0
 13 12  1  0
 12 11  1  0
 11  9  1  0
  9 10  2  0
  9  8  1  0
  8  7  1  0
  7  6  1  0
  6  5  1  0
  5  3  1  0
  3  4  2  0
  3  2  1  0
  2  1  1  6
  2 53  1  0
 53 55  1  0
 53 54  2  0
M  CHG  2  53   1  55  -1
M  END
$$$$
