
     RDKit          3D

 31 33  0  0  0  0  0  0  0  0999 V2000
   38.4407  -24.5983   36.0359 N   0  0  0  0  0  0  0  0  0  0  0  0
   38.3803  -24.0328   34.8209 C   0  0  0  0  0  0  0  0  0  0  0  0
   38.4757  -22.7252   34.7353 N   0  0  0  0  0  0  0  0  0  0  0  0
   38.3230  -22.0689   33.5336 C   0  0  0  0  0  0  0  0  0  0  0  0
   38.1925  -22.6945   32.3544 N   0  0  0  0  0  0  0  0  0  0  0  0
   37.9802  -24.0390   32.3399 C   0  0  0  0  0  0  0  0  0  0  0  0
   38.2045  -24.8285   33.5930 C   0  0  0  0  0  0  0  0  0  0  0  0
   37.8869  -26.1243   33.2621 N   0  0  0  0  0  0  0  0  0  0  0  0
   37.3634  -26.1128   31.9995 C   0  0  0  0  0  0  0  0  0  0  0  0
   37.4110  -24.8544   31.4949 N   0  0  0  0  0  0  0  0  0  0  0  0
   37.1021  -24.3647   30.1414 C   0  0  2  0  0  0  0  0  0  0  0  0
   36.3243  -25.2498   29.3768 O   0  0  0  0  0  0  0  0  0  0  0  0
   37.1426  -25.7723   28.2680 C   0  0  2  0  0  0  0  0  0  0  0  0
   37.0359  -27.2368   28.3496 C   0  0  0  0  0  0  0  0  0  0  0  0
   38.3131  -27.7363   27.8935 O   0  0  0  0  0  0  0  0  0  0  0  0
   39.5916  -27.4492   28.8596 P   0  0  1  0  0  0  0  0  0  0  0  0
   40.7674  -28.1929   28.3540 O   0  0  0  0  0  0  0  0  0  0  0  0
   39.7425  -25.9344   28.9997 O   0  0  0  0  0  0  0  0  0  0  0  0
   39.1736  -28.0875   30.2956 O   0  0  0  0  0  0  0  0  0  0  0  0
   37.9073  -29.0194   30.7068 P   0  0  2  0  0  0  0  0  0  0  0  0
   38.3306  -30.3746   31.0775 O   0  0  0  0  0  0  0  0  0  0  0  0
   37.0090  -29.1421   29.3486 O   0  0  0  0  0  0  0  0  0  0  0  0
   36.9217  -28.3577   31.6642 O   0  0  0  0  0  0  0  0  0  0  0  0
   38.5276  -25.2063   28.4965 C   0  0  1  0  0  0  0  0  0  0  0  0
   39.0384  -24.6131   27.3465 O   0  0  0  0  0  0  0  0  0  0  0  0
   40.0299  -25.2638   26.2956 P   0  0  2  0  0  0  0  0  0  0  0  0
   39.2433  -25.1379   25.0018 O   0  0  0  0  0  0  0  0  0  0  0  0
   40.2490  -26.7155   26.6105 O   0  0  0  0  0  0  0  0  0  0  0  0
   41.3978  -24.6555   26.1715 O   0  0  0  0  0  0  0  0  0  0  0  0
   38.3388  -24.0224   29.3756 C   0  0  1  0  0  0  0  0  0  0  0  0
   37.9946  -22.8797   28.5439 O   0  0  0  0  0  0  0  0  0  0  0  0
  4  3  4  0
  5  4  4  0
  6  7  4  0
 10  6  4  0
  6  5  4  0
  7  2  4  0
  7  8  4  0
  2  3  4  0
  2  1  1  0
 19 20  1  0
 16 19  1  0
 20 22  1  1
 20 21  2  0
 20 23  1  0
 16 17  2  0
 16 18  1  6
 15 16  1  0
 14 15  1  0
 13 14  1  1
 12 13  1  0
 13 24  1  0
 11 12  1  0
 11 30  1  0
 11 10  1  1
 30 31  1  6
 30 24  1  0
 24 25  1  6
 25 26  1  0
 26 27  2  0
 26 28  1  6
 26 29  1  0
 10  9  4  0
  9  8  4  0
M  END
$$$$
