
     RDKit          3D

 56 58  0  0  0  0  0  0  0  0999 V2000
   30.1016   14.2040   17.1950 C   0  0  0  0  0  0  0  0  0  0  0  0
   30.2198   14.6541   15.7214 C   0  0  1  0  0  0  0  0  0  0  0  0
   29.2617   15.7720   15.4179 C   0  0  0  0  0  0  0  0  0  0  0  0
   28.8889   16.1350   14.2356 O   0  0  0  0  0  0  0  0  0  0  0  0
   28.3896   16.1706   16.4966 N   0  0  0  0  0  0  0  0  0  0  0  0
   28.8882   16.8718   17.6264 C   0  0  0  0  0  0  0  0  0  0  0  0
   28.0427   18.1180   17.9413 C   0  0  0  0  0  0  0  0  0  0  0  0
   26.7962   17.7353   18.4599 N   0  0  0  0  0  0  0  0  0  0  0  0
   25.7422   18.5036   18.2919 C   0  0  0  0  0  0  0  0  0  0  0  0
   25.4019   18.7342   17.1418 O   0  0  0  0  0  0  0  0  0  0  0  0
   24.7742   18.5871   19.4068 C   0  0  0  0  0  0  0  0  0  0  0  0
   23.8343   19.8006   19.0945 C   0  0  0  0  0  0  0  0  0  0  0  0
   22.6967   19.8161   20.0052 N   0  0  0  0  0  0  0  0  0  0  0  0
   22.0420   20.9189   20.2453 C   0  0  0  0  0  0  0  0  0  0  0  0
   21.4562   21.5424   19.3973 O   0  0  0  0  0  0  0  0  0  0  0  0
   22.4061   21.5182   21.5995 C   0  0  1  0  0  0  0  0  0  0  0  0
   23.0224   22.7727   21.4144 O   0  0  0  0  0  0  0  0  0  0  0  0
   21.1889   22.0250   22.4102 C   0  0  2  0  0  0  0  0  0  0  0  0
   21.4421   22.4354   23.8732 C   0  0  0  0  0  0  0  0  0  0  0  0
   21.5775   23.5042   21.9788 C   0  0  0  0  0  0  0  0  0  0  0  0
   19.8641   22.3152   21.7693 C   0  0  0  0  0  0  0  0  0  0  0  0
   18.8607   22.5343   22.7853 O   0  0  0  0  0  0  0  0  0  0  0  0
   18.9974   23.8407   23.6868 P   0  0  2  0  0  0  0  0  0  0  0  0
   20.0228   23.5756   24.7253 O   0  0  0  0  0  0  0  0  0  0  0  0
   17.6532   24.1553   24.3024 O   0  0  0  0  0  0  0  0  0  0  0  0
   19.4137   25.1579   22.8938 O   0  0  0  0  0  0  0  0  0  0  0  0
   19.1799   25.2351   21.3049 P   0  0  2  0  0  0  0  0  0  0  0  0
   18.2909   26.3393   20.9248 O   0  0  0  0  0  0  0  0  0  0  0  0
   18.7219   23.9486   20.8446 O   0  0  0  0  0  0  0  0  0  0  0  0
   20.6505   25.4213   20.6378 O   0  0  0  0  0  0  0  0  0  0  0  0
   20.9616   24.7128   19.4611 C   0  0  0  0  0  0  0  0  0  0  0  0
   21.7650   25.6378   18.5763 C   0  0  1  0  0  0  0  0  0  0  0  0
   23.1917   25.5850   18.8267 O   0  0  0  0  0  0  0  0  0  0  0  0
   23.8134   25.1555   17.5986 C   0  0  1  0  0  0  0  0  0  0  0  0
   24.2470   23.7642   17.6575 N   0  0  0  0  0  0  0  0  0  0  0  0
   23.4987   22.6713   18.0185 C   0  0  0  0  0  0  0  0  0  0  0  0
   24.3180   21.5541   18.0541 N   0  0  0  0  0  0  0  0  0  0  0  0
   25.5636   21.9472   17.7716 C   0  0  0  0  0  0  0  0  0  0  0  0
   26.8360   21.3314   17.7392 C   0  0  0  0  0  0  0  0  0  0  0  0
   26.8765   19.9621   17.7469 N   0  0  0  0  0  0  0  0  0  0  0  0
   27.9399   22.1444   17.6708 N   0  0  0  0  0  0  0  0  0  0  0  0
   27.8375   23.5022   17.6377 C   0  0  0  0  0  0  0  0  0  0  0  0
   26.6593   24.1546   17.6006 N   0  0  0  0  0  0  0  0  0  0  0  0
   25.5300   23.4236   17.6031 C   0  0  0  0  0  0  0  0  0  0  0  0
   22.8939   25.4505   16.4302 C   0  0  2  0  0  0  0  0  0  0  0  0
   23.1099   26.7325   15.8035 O   0  0  0  0  0  0  0  0  0  0  0  0
   21.5514   25.2706   17.1184 C   0  0  2  0  0  0  0  0  0  0  0  0
   20.6950   26.2331   16.4698 O   0  0  0  0  0  0  0  0  0  0  0  0
   21.1392   27.7525   16.1405 P   0  0  2  0  0  0  0  0  0  0  0  0
   20.1560   28.7020   16.7276 O   0  0  0  0  0  0  0  0  0  0  0  0
   21.1157   27.8726   14.6466 O   0  0  0  0  0  0  0  0  0  0  0  0
   22.4611   27.8965   16.7657 O   0  0  0  0  0  0  0  0  0  0  0  0
   31.7876   15.2149   15.4654 S   0  0  1  0  0  0  0  0  0  0  0  0
   31.6725   16.0403   14.2983 O   0  0  0  0  0  0  0  0  0  0  0  0
   32.0869   15.8246   16.6904 O   0  0  0  0  0  0  0  0  0  0  0  0
   32.6770   14.1306   15.1324 O   0  0  0  0  0  0  0  0  0  0  0  0
 49 51  1  6
 49 52  1  0
 49 50  2  0
 49 48  1  0
 47 48  1  6
 47 45  1  0
 47 32  1  0
 45 46  1  1
 45 34  1  0
 34 35  1  1
 34 33  1  0
 35 44  4  0
 35 36  4  0
 44 43  4  0
 44 38  4  0
 43 42  4  0
 42 41  4  0
 41 39  4  0
 39 40  1  0
 39 38  4  0
 38 37  4  0
 37 36  4  0
 33 32  1  0
 32 31  1  1
 31 30  1  0
 30 27  1  0
 27 28  2  0
 27 29  1  1
 27 26  1  0
 26 23  1  0
 23 25  1  6
 23 24  2  0
 23 22  1  0
 22 21  1  0
 21 18  1  0
 18 19  1  6
 18 20  1  0
 18 16  1  0
 16 17  1  1
 16 14  1  0
 14 15  2  0
 14 13  1  0
 13 12  1  0
 12 11  1  0
 11  9  1  0
  9 10  2  0
  9  8  1  0
  8  7  1  0
  7  6  1  0
  6  5  1  0
  5  3  1  0
  3  4  2  0
  3  2  1  0
  2  1  1  6
  2 53  1  0
 53 54  2  0
 53 56  1  1
 53 55  2  0
M  END
$$$$
