
     RDKit          3D

 56 58  0  0  0  0  0  0  0  0999 V2000
   33.2550   15.0440   15.9720 C   0  0  0  0  0  0  0  0  0  0  0  0
   31.7510   14.9340   15.8050 C   0  0  2  0  0  0  0  0  0  0  0  0
   31.0050   15.9320   16.6310 C   0  0  0  0  0  0  0  0  0  0  0  0
   31.4410   16.4490   17.6540 O   0  0  0  0  0  0  0  0  0  0  0  0
   29.6570   16.2620   16.1610 N   0  0  0  0  0  0  0  0  0  0  0  0
   28.8190   17.1110   16.9580 C   0  0  0  0  0  0  0  0  0  0  0  0
   28.1890   16.3110   18.0860 C   0  0  0  0  0  0  0  0  0  0  0  0
   27.2130   17.1000   18.7690 N   0  0  0  0  0  0  0  0  0  0  0  0
   25.9510   16.7750   18.7220 C   0  0  0  0  0  0  0  0  0  0  0  0
   25.5990   15.7940   18.1160 O   0  0  0  0  0  0  0  0  0  0  0  0
   24.9480   17.6640   19.3990 C   0  0  0  0  0  0  0  0  0  0  0  0
   23.9380   18.1200   18.3640 C   0  0  0  0  0  0  0  0  0  0  0  0
   22.9900   19.0460   18.9370 N   0  0  0  0  0  0  0  0  0  0  0  0
   22.0570   18.6620   19.7840 C   0  0  0  0  0  0  0  0  0  0  0  0
   21.9230   17.4760   20.1020 O   0  0  0  0  0  0  0  0  0  0  0  0
   21.2020   19.7730   20.3470 C   0  0  2  0  0  0  0  0  0  0  0  0
   21.3370   20.9280   19.5640 O   0  0  0  0  0  0  0  0  0  0  0  0
   21.7010   20.3870   21.6420 C   0  0  1  0  0  0  0  0  0  0  0  0
   23.1260   20.0890   22.0620 C   0  0  0  0  0  0  0  0  0  0  0  0
   21.2150   19.1580   22.4190 C   0  0  0  0  0  0  0  0  0  0  0  0
   20.8090   21.2250   22.5330 C   0  0  0  0  0  0  0  0  0  0  0  0
   19.4760   21.2100   22.0480 O   0  0  0  0  0  0  0  0  0  0  0  0
   18.6140   22.5780   22.0780 P   0  0  1  0  0  0  0  0  0  0  0  0
   17.2150   22.2020   21.7360 O   0  0  0  0  0  0  0  0  0  0  0  0
   18.7420   23.2370   23.4190 O   0  0  0  0  0  0  0  0  0  0  0  0
   19.1370   23.6550   21.0460 O   0  0  0  0  0  0  0  0  0  0  0  0
   18.9090   23.5110   19.4700 P   0  0  1  0  0  0  0  0  0  0  0  0
   18.5860   22.0990   19.0780 O   0  0  0  0  0  0  0  0  0  0  0  0
   17.7830   24.4440   19.1250 O   0  0  0  0  0  0  0  0  0  0  0  0
   20.1730   24.1000   18.7380 O   0  0  0  0  0  0  0  0  0  0  0  0
   20.5670   25.4570   18.9130 C   0  0  0  0  0  0  0  0  0  0  0  0
   21.2790   25.8850   17.6290 C   0  0  1  0  0  0  0  0  0  0  0  0
   22.6550   25.4380   17.6540 O   0  0  0  0  0  0  0  0  0  0  0  0
   22.7870   24.4680   16.5950 C   0  0  1  0  0  0  0  0  0  0  0  0
   23.7000   23.3840   16.9890 N   0  0  0  0  0  0  0  0  0  0  0  0
   23.5870   22.5260   18.0380 C   0  0  0  0  0  0  0  0  0  0  0  0
   24.6670   21.6970   18.0660 N   0  0  0  0  0  0  0  0  0  0  0  0
   25.4720   22.0520   17.0420 C   0  0  0  0  0  0  0  0  0  0  0  0
   26.7410   21.5680   16.5210 C   0  0  0  0  0  0  0  0  0  0  0  0
   27.3540   20.5390   17.1500 N   0  0  0  0  0  0  0  0  0  0  0  0
   27.2470   22.1620   15.4300 N   0  0  0  0  0  0  0  0  0  0  0  0
   26.6040   23.2010   14.8230 C   0  0  0  0  0  0  0  0  0  0  0  0
   25.4240   23.6960   15.2450 N   0  0  0  0  0  0  0  0  0  0  0  0
   24.8380   23.1670   16.3390 C   0  0  0  0  0  0  0  0  0  0  0  0
   21.4110   23.9280   16.2350 C   0  0  2  0  0  0  0  0  0  0  0  0
   21.3560   23.4020   14.8890 O   0  0  0  0  0  0  0  0  0  0  0  0
   20.6250   25.2040   16.4320 C   0  0  2  0  0  0  0  0  0  0  0  0
   20.7970   25.9830   15.2550 O   0  0  0  0  0  0  0  0  0  0  0  0
   19.6490   26.9700   14.6690 P   0  0  2  0  0  0  0  0  0  0  0  0
   19.3180   28.0240   15.6840 O   0  0  0  0  0  0  0  0  0  0  0  0
   18.4530   26.1050   14.3320 O   0  0  0  0  0  0  0  0  0  0  0  0
   20.2850   27.6130   13.4640 O   0  0  0  0  0  0  0  0  0  0  0  0
   31.3020   13.3840   16.2770 S   0  0  2  0  0  0  0  0  0  0  0  0
   31.7260   13.3090   17.6410 O   0  0  0  0  0  0  0  0  0  0  0  0
   31.9630   12.5450   15.3380 O   0  0  0  0  0  0  0  0  0  0  0  0
   29.8680   13.2240   16.2630 O   0  0  0  0  0  0  0  0  0  0  0  0
 49 51  1  6
 49 52  1  0
 49 50  2  0
 49 48  1  0
 47 48  1  6
 47 45  1  0
 47 32  1  0
 45 46  1  6
 45 34  1  0
 34 35  1  1
 34 33  1  0
 35 44  1  0
 35 36  1  0
 44 43  2  0
 44 38  1  0
 43 42  1  0
 42 41  2  0
 41 39  1  0
 39 40  1  0
 39 38  2  0
 38 37  1  0
 37 36  2  0
 33 32  1  0
 32 31  1  1
 31 30  1  0
 30 27  1  0
 27 28  2  0
 27 29  1  6
 27 26  1  0
 26 23  1  0
 23 25  1  1
 23 24  2  0
 23 22  1  0
 22 21  1  0
 21 18  1  0
 18 19  1  6
 18 20  1  0
 18 16  1  0
 16 17  1  6
 16 14  1  0
 14 15  2  0
 14 13  1  0
 13 12  1  0
 12 11  1  0
 11  9  1  0
  9 10  2  0
  9  8  1  0
  8  7  1  0
  7  6  1  0
  6  5  1  0
  5  3  1  0
  3  4  2  0
  3  2  1  0
  2  1  1  1
  2 53  1  0
 53 54  2  0
 53 56  1  1
 53 55  2  0
M  END
$$$$
