
     RDKit          3D

 27 29  0  0  0  0  0  0  0  0999 V2000
   32.4183   -2.2120   17.9379 N   0  0  0  0  0  0  0  0  0  0  0  0
   32.3923   -1.5449   16.7343 C   0  0  0  0  0  0  0  0  0  0  0  0
   32.4524   -2.1734   15.5552 N   0  0  0  0  0  0  0  0  0  0  0  0
   32.4372   -1.4976   14.3739 C   0  0  0  0  0  0  0  0  0  0  0  0
   32.3334   -0.2240   14.2860 N   0  0  0  0  0  0  0  0  0  0  0  0
   32.1631    0.5586   15.3866 C   0  0  0  0  0  0  0  0  0  0  0  0
   32.2604   -0.0684   16.7160 C   0  0  0  0  0  0  0  0  0  0  0  0
   32.1195    0.8825   17.6500 N   0  0  0  0  0  0  0  0  0  0  0  0
   31.8592    2.0532   16.9682 C   0  0  0  0  0  0  0  0  0  0  0  0
   31.7222    1.8315   15.6529 N   0  0  0  0  0  0  0  0  0  0  0  0
   30.9740    2.6535   14.6520 C   0  0  2  0  0  0  0  0  0  0  0  0
   31.4737    3.9616   14.8997 O   0  0  0  0  0  0  0  0  0  0  0  0
   30.3938    4.9152   14.6892 C   0  0  2  0  0  0  0  0  0  0  0  0
   30.3949    5.7238   15.9863 C   0  0  0  0  0  0  0  0  0  0  0  0
   30.4938    4.7898   17.0861 O   0  0  0  0  0  0  0  0  0  0  0  0
   29.6267    4.8984   18.4423 P   0  0  2  0  0  0  0  0  0  0  0  0
   30.4489    4.4246   19.6167 O   0  0  0  0  0  0  0  0  0  0  0  0
   28.3090    4.2344   18.1747 O   0  0  0  0  0  0  0  0  0  0  0  0
   29.4643    6.4837   18.5586 O   0  0  0  0  0  0  0  0  0  0  0  0
   28.1882    7.3747   18.9704 P   0  0  1  0  0  0  0  0  0  0  0  0
   27.9012    8.3072   17.8831 O   0  0  0  0  0  0  0  0  0  0  0  0
   27.0980    6.2640   19.0706 O   0  0  0  0  0  0  0  0  0  0  0  0
   28.5379    7.9544   20.3474 O   0  0  0  0  0  0  0  0  0  0  0  0
   29.1259    4.0839   14.5356 C   0  0  1  0  0  0  0  0  0  0  0  0
   28.8350    3.9837   13.1401 O   0  0  0  0  0  0  0  0  0  0  0  0
   29.4898    2.7187   15.0626 C   0  0  1  0  0  0  0  0  0  0  0  0
   28.7507    1.6438   14.4195 O   0  0  0  0  0  0  0  0  0  0  0  0
 20 22  1  1
 20 21  2  0
 20 23  1  0
 19 20  1  0
 16 18  1  1
 16 17  2  0
 16 19  1  0
 16 15  1  0
 15 14  1  0
 13 14  1  1
 13 12  1  0
 13 24  1  0
 12 11  1  0
 24 25  1  6
 24 26  1  0
 26 27  1  6
 26 11  1  0
 11 10  1  1
 10  9  4  0
 10  6  4  0
  9  8  4  0
  8  7  4  0
  7  2  4  0
  7  6  4  0
  2  1  1  0
  2  3  4  0
  3  4  4  0
  4  5  4  0
  5  6  4  0
M  END
$$$$
