
     RDKit          3D

 20 22  0  0  0  0  0  0  0  0999 V2000
   -1.7612   90.4293  -43.6953 O   0  0  0  0  0  0  0  0  0  0  0  0
   -1.8209   89.5885  -44.5843 C   0  0  0  0  0  0  0  0  0  0  0  0
   -0.7926   88.5310  -44.6567 N   0  0  0  0  0  0  0  0  0  0  0  0
   -1.4399   87.3090  -45.0879 C   0  0  0  0  0  0  0  0  0  0  0  0
   -0.9027   86.2189  -44.8608 O   0  0  0  0  0  0  0  0  0  0  0  0
   -2.9015   87.6521  -45.3889 C   0  0  0  0  0  0  0  0  0  0  0  0
   -3.9906   86.7894  -45.7204 C   0  0  0  0  0  0  0  0  0  0  0  0
   -3.6491   85.4995  -46.2469 N   0  0  0  0  0  0  0  0  0  0  0  0
   -2.2677   85.0300  -46.4272 C   0  0  0  0  0  0  0  0  0  0  0  0
   -1.5562   86.2681  -47.0450 C   0  0  0  0  0  0  0  0  0  0  0  0
   -1.1100   86.1319  -48.3180 C   0  0  0  0  0  0  0  0  0  0  0  0
   -0.8637   87.3315  -49.1162 C   0  0  0  0  0  0  0  0  0  0  0  0
   -1.0096   88.5286  -48.4639 C   0  0  0  0  0  0  0  0  0  0  0  0
   -1.3443   88.6570  -47.1140 C   0  0  0  0  0  0  0  0  0  0  0  0
   -1.3002   89.9047  -46.5346 O   0  0  0  0  0  0  0  0  0  0  0  0
   -1.5374   87.4753  -46.3705 C   0  0  0  0  0  0  0  0  0  0  0  0
   -5.2937   87.3374  -45.7137 C   0  0  0  0  0  0  0  0  0  0  0  0
   -5.4871   88.6927  -45.5624 C   0  0  0  0  0  0  0  0  0  0  0  0
   -4.3941   89.5423  -45.3274 C   0  0  0  0  0  0  0  0  0  0  0  0
   -3.1165   89.0142  -45.1811 C   0  0  0  0  0  0  0  0  0  0  0  0
  6  4  1  0
  4  3  1  0
  4  5  2  0
 20  2  1  0
  2  3  1  0
  2  1  2  0
  6 20  4  0
 20 19  4  0
  7  6  4  0
  7 17  4  0
  8  7  1  0
  9 10  1  0
  9  8  1  0
 10 16  4  0
 10 11  4  0
 16 14  4  0
 14 13  4  0
 14 15  1  0
 13 12  4  0
 12 11  4  0
 17 18  4  0
 18 19  4  0
M  END
$$$$
