
     RDKit          3D

 31 33  0  0  0  0  0  0  0  0999 V2000
  109.3432   -8.6338   -6.5974 C   0  0  0  0  0  0  0  0  0  0  0  0
  110.2789   -8.7062   -7.6765 N   0  0  0  0  0  0  0  0  0  0  0  0
  110.3633  -10.0380   -8.2916 C   0  0  2  0  0  0  0  0  0  0  0  0
  110.7624  -11.0589   -7.2234 C   0  0  1  0  0  0  0  0  0  0  0  0
  109.6622  -11.0502   -6.3112 O   0  0  0  0  0  0  0  0  0  0  0  0
  110.9308  -12.4155   -7.8298 C   0  0  2  0  0  0  0  0  0  0  0  0
  111.3542  -13.2585   -6.7561 O   0  0  0  0  0  0  0  0  0  0  0  0
  112.5819  -13.9508   -6.9080 C   0  0  2  0  0  0  0  0  0  0  0  0
  112.3287  -15.3106   -7.4163 C   0  0  1  0  0  0  0  0  0  0  0  0
  113.4774  -15.7976   -8.1185 O   0  0  0  0  0  0  0  0  0  0  0  0
  111.8476  -16.2873   -6.4252 C   0  0  2  0  0  0  0  0  0  0  0  0
  110.4517  -16.3525   -6.3478 O   0  0  0  0  0  0  0  0  0  0  0  0
  109.8581  -17.6530   -6.3291 C   0  0  2  0  0  0  0  0  0  0  0  0
  110.0864  -18.2745   -7.6354 O   0  0  0  0  0  0  0  0  0  0  0  0
  109.4238  -19.3546   -7.9259 C   0  0  0  0  0  0  0  0  0  0  0  0
  109.9999  -20.2910   -8.9412 C   0  0  0  0  0  0  0  0  0  0  0  0
  109.7327  -19.8775  -10.2982 N   0  0  0  0  0  0  0  0  0  0  0  0
  108.3090  -19.6951   -7.3100 C   0  0  0  0  0  0  0  0  0  0  0  0
  107.7238  -18.8918   -6.1629 C   0  0  0  0  0  0  0  0  0  0  0  0
  108.3147  -17.4800   -6.1638 C   0  0  2  0  0  0  0  0  0  0  0  0
  107.7940  -16.6333   -7.1883 N   0  0  0  0  0  0  0  0  0  0  0  0
  112.4407  -16.1594   -5.0238 C   0  0  1  0  0  0  0  0  0  0  0  0
  113.6868  -16.8767   -5.0033 N   0  0  0  0  0  0  0  0  0  0  0  0
  112.5639  -14.7472   -4.5404 C   0  0  0  0  0  0  0  0  0  0  0  0
  113.3402  -13.9583   -5.5906 C   0  0  2  0  0  0  0  0  0  0  0  0
  113.5987  -12.5786   -5.1196 N   0  0  0  0  0  0  0  0  0  0  0  0
  111.9452  -12.3697   -8.8189 O   0  0  0  0  0  0  0  0  0  0  0  0
  111.6731  -11.4971   -9.8769 C   0  0  0  0  0  0  0  0  0  0  0  0
  111.4364  -10.0855   -9.4576 C   0  0  1  0  0  0  0  0  0  0  0  0
  110.9838   -9.2768  -10.6272 C   0  0  0  0  0  0  0  0  0  0  0  0
  112.6406   -9.5446   -8.8704 O   0  0  0  0  0  0  0  0  0  0  0  0
 13 20  1  0
 13 12  1  1
 13 14  1  0
 25 24  1  0
  8 25  1  0
 25 26  1  6
  6  4  1  0
  6 27  1  0
  6  7  1  6
 20 19  1  0
 20 21  1  1
 24 22  1  0
  4  3  1  0
  4  5  1  1
 19 18  1  0
 11 22  1  0
 22 23  1  6
  3 29  1  0
  3  2  1  1
 15 18  2  0
  9 11  1  0
 11 12  1  1
 28 29  1  0
 29 30  1  6
 29 31  1  0
 15 16  1  0
 14 15  1  0
  8  9  1  0
  9 10  1  1
 27 28  1  0
 16 17  1  0
  8  7  1  1
  2  1  1  0
M  CHG  5   2   1  17   1  21   1  23   1  26   1
M  END
$$$$
