
     RDKit          3D

 31 33  0  0  0  0  0  0  0  0999 V2000
  111.4765   -9.3105   -6.1976 C   0  0  0  0  0  0  0  0  0  0  0  0
  111.4390  -10.6376   -6.7817 N   0  0  0  0  0  0  0  0  0  0  0  0
  110.4093  -10.6760   -7.9029 C   0  0  2  0  0  0  0  0  0  0  0  0
  109.6873  -12.0396   -7.8896 C   0  0  1  0  0  0  0  0  0  0  0  0
  108.6473  -11.9977   -8.8580 O   0  0  0  0  0  0  0  0  0  0  0  0
  110.6365  -13.1692   -8.2997 C   0  0  2  0  0  0  0  0  0  0  0  0
  111.6451  -13.1923   -7.2964 O   0  0  0  0  0  0  0  0  0  0  0  0
  112.6256  -14.2492   -7.4020 C   0  0  2  0  0  0  0  0  0  0  0  0
  111.8762  -15.5454   -7.6628 C   0  0  1  0  0  0  0  0  0  0  0  0
  112.8163  -16.5987   -7.8662 O   0  0  0  0  0  0  0  0  0  0  0  0
  110.9615  -15.9558   -6.4971 C   0  0  1  0  0  0  0  0  0  0  0  0
  110.4629  -17.2947   -6.5470 O   0  0  0  0  0  0  0  0  0  0  0  0
  109.4586  -17.5709   -7.5228 C   0  0  1  0  0  0  0  0  0  0  0  0
  109.8723  -18.4266   -8.5321 O   0  0  0  0  0  0  0  0  0  0  0  0
  109.7358  -19.8054   -8.2233 C   0  0  2  0  0  0  0  0  0  0  0  0
  110.3736  -20.6895   -9.2574 C   0  0  0  0  0  0  0  0  0  0  0  0
  109.5845  -20.8301  -10.4626 N   0  0  0  0  0  0  0  0  0  0  0  0
  108.2598  -20.1949   -8.1161 C   0  0  0  0  0  0  0  0  0  0  0  0
  107.4165  -18.9722   -7.7719 C   0  0  0  0  0  0  0  0  0  0  0  0
  108.2413  -18.1269   -6.7645 C   0  0  1  0  0  0  0  0  0  0  0  0
  108.7007  -19.1059   -5.7623 N   0  0  0  0  0  0  0  0  0  0  0  0
  111.7856  -15.9009   -5.1710 C   0  0  1  0  0  0  0  0  0  0  0  0
  112.8061  -16.9486   -5.2630 N   0  0  0  0  0  0  0  0  0  0  0  0
  112.4560  -14.5246   -4.9417 C   0  0  0  0  0  0  0  0  0  0  0  0
  113.4049  -14.2737   -6.0961 C   0  0  1  0  0  0  0  0  0  0  0  0
  114.3979  -15.3784   -6.1497 N   0  0  0  0  0  0  0  0  0  0  0  0
  111.2126  -12.8737   -9.5955 O   0  0  0  0  0  0  0  0  0  0  0  0
  111.9711  -11.6809   -9.6166 C   0  0  0  0  0  0  0  0  0  0  0  0
  111.0861  -10.4739   -9.2823 C   0  0  1  0  0  0  0  0  0  0  0  0
  110.0615  -10.3047  -10.3647 C   0  0  0  0  0  0  0  0  0  0  0  0
  111.9320   -9.3050   -9.1937 O   0  0  0  0  0  0  0  0  0  0  0  0
 13 12  1  1
 13 20  1  0
 13 14  1  0
 11 12  1  1
 20 21  1  1
 20 19  1  0
 19 18  1  0
 15 18  1  0
 14 15  1  0
 15 16  1  6
 16 17  1  0
 25 26  1  6
 24 25  1  0
 25  8  1  0
 22 24  1  0
 22 23  1  6
 22 11  1  0
 11  9  1  0
  9 10  1  1
  9  8  1  0
  8  7  1  1
  6  7  1  6
  6  4  1  0
  6 27  1  0
  4  5  1  6
  4  3  1  0
  3  2  1  1
  3 29  1  0
  2  1  1  0
 29 31  1  0
 29 28  1  0
 29 30  1  6
 28 27  1  0
M  CHG  5   2   1  17   1  21   1  23   1  26   1
M  END
$$$$
