
     RDKit          3D

 32 34  0  0  0  0  0  0  0  0999 V2000
  111.3051  -20.1811   -9.6339 N   0  0  0  0  0  0  0  0  0  0  0  0
  110.6815  -20.0336   -8.3376 C   0  0  0  0  0  0  0  0  0  0  0  0
  109.1980  -19.9728   -8.5190 C   0  0  2  0  0  0  0  0  0  0  0  0
  108.7984  -18.5348   -8.5713 O   0  0  0  0  0  0  0  0  0  0  0  0
  109.0862  -17.8429   -7.3697 C   0  0  2  0  0  0  0  0  0  0  0  0
  110.4516  -17.7454   -7.0554 O   0  0  0  0  0  0  0  0  0  0  0  0
  111.0341  -16.4304   -6.7590 C   0  0  1  0  0  0  0  0  0  0  0  0
  111.3911  -16.5419   -5.2646 C   0  0  1  0  0  0  0  0  0  0  0  0
  112.1405  -17.7504   -5.0969 N   0  0  0  0  0  0  0  0  0  0  0  0
  112.1989  -15.3191   -4.7280 C   0  0  0  0  0  0  0  0  0  0  0  0
  113.4626  -15.1200   -5.5328 C   0  0  2  0  0  0  0  0  0  0  0  0
  114.2121  -14.0022   -5.0312 N   0  0  0  0  0  0  0  0  0  0  0  0
  113.1183  -14.9134   -7.0203 C   0  0  2  0  0  0  0  0  0  0  0  0
  112.3986  -13.7332   -7.1752 O   0  0  0  0  0  0  0  0  0  0  0  0
  113.0952  -12.6618   -7.7076 C   0  0  1  0  0  0  0  0  0  0  0  0
  113.0779  -12.5624   -9.1460 O   0  0  0  0  0  0  0  0  0  0  0  0
  111.7855  -12.1679   -9.6716 C   0  0  2  0  0  0  0  0  0  0  0  0
  111.8443  -12.2563  -11.1769 C   0  0  0  0  0  0  0  0  0  0  0  0
  111.7098  -10.9117  -11.7423 O   0  0  0  0  0  0  0  0  0  0  0  0
  111.4441  -10.7731   -9.1234 C   0  0  1  0  0  0  0  0  0  0  0  0
  110.1655  -10.3621   -9.6208 O   0  0  0  0  0  0  0  0  0  0  0  0
  111.3567  -10.8510   -7.6149 C   0  0  1  0  0  0  0  0  0  0  0  0
  110.1617  -11.6357   -7.1008 N   0  0  0  0  0  0  0  0  0  0  0  0
  112.5953  -11.3998   -7.0739 C   0  0  1  0  0  0  0  0  0  0  0  0
  112.4830  -11.6328   -5.6545 O   0  0  0  0  0  0  0  0  0  0  0  0
  112.2857  -16.0965   -7.5819 C   0  0  2  0  0  0  0  0  0  0  0  0
  111.8994  -15.7748   -8.8774 O   0  0  0  0  0  0  0  0  0  0  0  0
  108.3562  -18.5096   -6.2080 C   0  0  2  0  0  0  0  0  0  0  0  0
  108.7214  -17.7823   -4.9183 N   0  0  0  0  0  0  0  0  0  0  0  0
  108.7298  -19.9446   -6.0511 C   0  0  0  0  0  0  0  0  0  0  0  0
  108.4937  -20.6712   -7.3218 C   0  0  2  0  0  0  0  0  0  0  0  0
  109.0730  -21.9553   -7.2438 O   0  0  0  0  0  0  0  0  0  0  0  0
  5  6  1  1
  5 28  1  0
  5  4  1  0
  7  6  1  1
 28 29  1  1
 28 30  1  0
 30 31  1  0
 31 32  1  1
  3 31  1  0
  4  3  1  0
  3  2  1  6
  2  1  1  0
 11 12  1  6
 10 11  1  0
 11 13  1  0
  8 10  1  0
  8  9  1  6
  8  7  1  0
  7 26  1  0
 26 27  1  1
 26 13  1  0
 13 14  1  1
 15 14  1  6
 15 24  1  0
 15 16  1  0
 24 25  1  1
 24 22  1  0
 22 23  1  1
 22 20  1  0
 20 21  1  6
 20 17  1  0
 17 16  1  0
 17 18  1  6
 18 19  1  0
M  CHG  5   1   1   9   1  12   1  23   1  29   1
M  END
$$$$
