
     RDKit          3D

 33 35  0  0  0  0  0  0  0  0999 V2000
  109.0998  -20.7773   -9.3090 N   0  0  0  0  0  0  0  0  0  0  0  0
  107.6828  -21.0031   -9.5005 C   0  0  0  0  0  0  0  0  0  0  0  0
  106.9097  -20.0318   -8.7161 C   0  0  2  0  0  0  0  0  0  0  0  0
  107.8590  -19.0622   -8.2469 O   0  0  0  0  0  0  0  0  0  0  0  0
  107.2467  -17.9858   -7.4286 C   0  0  2  0  0  0  0  0  0  0  0  0
  108.2326  -17.1132   -6.9573 O   0  0  0  0  0  0  0  0  0  0  0  0
  109.5746  -17.4734   -6.9848 C   0  0  2  0  0  0  0  0  0  0  0  0
  110.0413  -17.4584   -5.5615 C   0  0  1  0  0  0  0  0  0  0  0  0
  110.8685  -18.6208   -5.3877 N   0  0  0  0  0  0  0  0  0  0  0  0
  110.6797  -16.1957   -5.0750 C   0  0  0  0  0  0  0  0  0  0  0  0
  111.8322  -15.8546   -5.9936 C   0  0  2  0  0  0  0  0  0  0  0  0
  112.5423  -14.6730   -5.5258 N   0  0  0  0  0  0  0  0  0  0  0  0
  111.3623  -15.6641   -7.4469 C   0  0  2  0  0  0  0  0  0  0  0  0
  110.7770  -14.3881   -7.5808 O   0  0  0  0  0  0  0  0  0  0  0  0
  111.6532  -13.3301   -7.7416 C   0  0  1  0  0  0  0  0  0  0  0  0
  111.8720  -12.9943   -9.1141 O   0  0  0  0  0  0  0  0  0  0  0  0
  110.6784  -12.5474   -9.8110 C   0  0  2  0  0  0  0  0  0  0  0  0
  110.9700  -12.3413  -11.2363 C   0  0  0  0  0  0  0  0  0  0  0  0
  110.2228  -13.1830  -12.0611 O   0  0  0  0  0  0  0  0  0  0  0  0
  110.1363  -11.3100   -9.0660 C   0  0  1  0  0  0  0  0  0  0  0  0
  108.9501  -10.8968   -9.7625 O   0  0  0  0  0  0  0  0  0  0  0  0
  109.8060  -11.6244   -7.6714 C   0  0  2  0  0  0  0  0  0  0  0  0
  109.3243  -10.4162   -6.9429 N   0  0  0  0  0  0  0  0  0  0  0  0
  111.0383  -12.1405   -6.9889 C   0  0  1  0  0  0  0  0  0  0  0  0
  110.7871  -12.5806   -5.6861 O   0  0  0  0  0  0  0  0  0  0  0  0
  110.5076  -16.7282   -7.9722 C   0  0  1  0  0  0  0  0  0  0  0  0
  111.1970  -17.6347   -8.7486 O   0  0  0  0  0  0  0  0  0  0  0  0
  106.6794  -18.6934   -6.2065 C   0  0  2  0  0  0  0  0  0  0  0  0
  107.7711  -19.3288   -5.4938 N   0  0  0  0  0  0  0  0  0  0  0  0
  105.6137  -19.6872   -6.5968 C   0  0  1  0  0  0  0  0  0  0  0  0
  104.5014  -18.9300   -7.2097 O   0  0  0  0  0  0  0  0  0  0  0  0
  106.1591  -20.7061   -7.5527 C   0  0  1  0  0  0  0  0  0  0  0  0
  105.1909  -21.5578   -8.1138 O   0  0  0  0  0  0  0  0  0  0  0  0
  5 28  1  0
  5  4  1  0
  5  6  1  1
 28 30  1  0
 28 29  1  6
 30 32  1  0
 30 31  1  6
  3 32  1  0
 32 33  1  1
  3  2  1  6
  4  3  1  0
  2  1  1  0
 13 11  1  0
 11 10  1  0
 11 12  1  6
 13 26  1  0
 13 14  1  1
 26  7  1  0
 26 27  1  1
  7  8  1  0
  7  6  1  1
 10  8  1  0
  8  9  1  6
 15 24  1  0
 15 14  1  6
 15 16  1  0
 24 22  1  0
 24 25  1  1
 22 20  1  0
 22 23  1  1
 20 17  1  0
 20 21  1  6
 17 18  1  6
 17 16  1  0
 18 19  1  0
M  CHG  5   1   1   9   1  12   1  23   1  29   1
M  END
$$$$
