
     RDKit          3D

 33 35  0  0  0  0  0  0  0  0999 V2000
  110.2510  -20.8140  -10.1710 N   0  0  0  0  0  0  0  0  0  0  0  0
  109.0600  -21.4520   -9.6270 C   0  0  0  0  0  0  0  0  0  0  0  0
  108.5940  -20.6810   -8.4230 C   0  0  1  0  0  0  0  0  0  0  0  0
  108.3650  -19.3190   -8.8860 O   0  0  0  0  0  0  0  0  0  0  0  0
  107.9070  -18.4270   -7.8090 C   0  0  2  0  0  0  0  0  0  0  0  0
  108.7960  -18.4200   -6.7470 O   0  0  0  0  0  0  0  0  0  0  0  0
  110.0680  -17.8050   -6.9180 C   0  0  2  0  0  0  0  0  0  0  0  0
  110.7490  -17.9770   -5.5550 C   0  0  1  0  0  0  0  0  0  0  0  0
  110.9130  -19.4150   -5.3020 N   0  0  0  0  0  0  0  0  0  0  0  0
  112.0960  -17.2600   -5.4700 C   0  0  0  0  0  0  0  0  0  0  0  0
  111.9180  -15.7780   -5.8000 C   0  0  1  0  0  0  0  0  0  0  0  0
  113.1940  -15.0790   -5.6630 N   0  0  0  0  0  0  0  0  0  0  0  0
  111.3820  -15.6340   -7.2250 C   0  0  2  0  0  0  0  0  0  0  0  0
  111.1950  -14.2650   -7.5130 O   0  0  0  0  0  0  0  0  0  0  0  0
  112.1070  -13.6740   -8.3860 C   0  0  1  0  0  0  0  0  0  0  0  0
  111.6470  -13.7870   -9.7620 O   0  0  0  0  0  0  0  0  0  0  0  0
  110.3230  -13.1410   -9.9420 C   0  0  2  0  0  0  0  0  0  0  0  0
  109.8460  -13.3870  -11.3290 C   0  0  0  0  0  0  0  0  0  0  0  0
  110.6610  -12.7580  -12.2450 O   0  0  0  0  0  0  0  0  0  0  0  0
  110.4300  -11.6660   -9.5640 C   0  0  1  0  0  0  0  0  0  0  0  0
  109.1270  -11.0850   -9.7470 O   0  0  0  0  0  0  0  0  0  0  0  0
  110.8940  -11.5080   -8.1560 C   0  0  2  0  0  0  0  0  0  0  0  0
  111.0080  -10.0470   -7.8080 N   0  0  0  0  0  0  0  0  0  0  0  0
  112.2150  -12.2040   -7.9970 C   0  0  1  0  0  0  0  0  0  0  0  0
  112.6200  -12.1780   -6.6470 O   0  0  0  0  0  0  0  0  0  0  0  0
  110.0210  -16.3280   -7.3600 C   0  0  1  0  0  0  0  0  0  0  0  0
  109.6200  -16.2610   -8.7160 O   0  0  0  0  0  0  0  0  0  0  0  0
  106.5780  -18.9940   -7.3360 C   0  0  2  0  0  0  0  0  0  0  0  0
  106.0380  -18.0630   -6.2890 N   0  0  0  0  0  0  0  0  0  0  0  0
  106.7230  -20.3650   -6.7940 C   0  0  1  0  0  0  0  0  0  0  0  0
  105.3980  -20.8340   -6.3730 O   0  0  0  0  0  0  0  0  0  0  0  0
  107.3160  -21.2890   -7.8210 C   0  0  2  0  0  0  0  0  0  0  0  0
  107.6680  -22.5720   -7.2850 O   0  0  0  0  0  0  0  0  0  0  0  0
  5 28  1  0
  5  4  1  0
  5  6  1  1
 28 30  1  0
 28 29  1  1
 30 32  1  0
 30 31  1  6
  3 32  1  0
 32 33  1  1
  3  2  1  6
  4  3  1  0
  2  1  1  0
 13 11  1  0
 11 10  1  0
 11 12  1  6
 13 26  1  0
 13 14  1  1
 26  7  1  0
 26 27  1  6
  7  8  1  0
  7  6  1  1
 10  8  1  0
  8  9  1  6
 15 24  1  0
 15 14  1  1
 15 16  1  0
 24 22  1  0
 24 25  1  1
 22 20  1  0
 22 23  1  6
 20 17  1  0
 20 21  1  1
 17 18  1  6
 17 16  1  0
 18 19  1  0
M  CHG  5   1   1   9   1  12   1  23   1  29   1
M  END
$$$$
