
     RDKit          3D

 14 15  0  0  0  0  0  0  0  0999 V2000
   -7.8773  -31.6965  -17.5748 O   0  0  0  0  0  0  0  0  0  0  0  0
   -8.8349  -32.4834  -17.3188 C   0  0  0  0  0  0  0  0  0  0  0  0
   -8.7264  -33.7319  -17.4960 O   0  0  0  0  0  0  0  0  0  0  0  0
  -10.0143  -31.9496  -16.5194 C   0  0  0  0  0  0  0  0  0  0  0  0
   -9.6876  -31.3651  -15.2817 C   0  0  0  0  0  0  0  0  0  0  0  0
  -10.5681  -31.3335  -14.2656 C   0  0  0  0  0  0  0  0  0  0  0  0
  -11.8962  -31.7004  -14.5224 C   0  0  0  0  0  0  0  0  0  0  0  0
  -12.2803  -32.2091  -15.7766 C   0  0  0  0  0  0  0  0  0  0  0  0
  -11.3685  -32.2978  -16.7688 C   0  0  0  0  0  0  0  0  0  0  0  0
  -11.8115  -32.5940  -18.0000 N   0  0  0  0  0  0  0  0  0  0  0  0
  -11.2863  -33.4832  -18.7812 C   0  0  0  0  0  0  0  0  0  0  0  0
  -12.3622  -33.9919  -19.5606 C   0  0  0  0  0  0  0  0  0  0  0  0
  -13.3965  -33.1964  -19.3179 C   0  0  0  0  0  0  0  0  0  0  0  0
  -13.0312  -32.2287  -18.4318 C   0  0  0  0  0  0  0  0  0  0  0  0
 12 13  4  0
 11 12  4  0
  8  7  4  0
  7  6  4  0
  9  8  4  0
  9  4  4  0
 10  9  1  0
  4  5  4  0
  4  2  1  0
  5  6  4  0
  2  3  1  0
  2  1  2  0
 10 14  4  0
 10 11  4  0
 14 13  4  0
M  END
$$$$
