
     RDKit          3D

 17 18  0  0  0  0  0  0  0  0999 V2000
   -0.2975  -38.0294   -6.6429 O   0  0  0  0  0  0  0  0  0  0  0  0
   -0.4200  -37.3492   -5.6337 C   0  0  0  0  0  0  0  0  0  0  0  0
   -0.3043  -37.8983   -4.4681 O   0  0  0  0  0  0  0  0  0  0  0  0
   -0.3585  -35.8450   -5.8045 C   0  0  0  0  0  0  0  0  0  0  0  0
    0.8735  -35.1993   -5.9770 C   0  0  0  0  0  0  0  0  0  0  0  0
    0.9482  -33.8983   -6.1632 N   0  0  0  0  0  0  0  0  0  0  0  0
   -0.1429  -33.1598   -6.1771 C   0  0  0  0  0  0  0  0  0  0  0  0
   -1.3923  -33.7554   -5.9455 C   0  0  0  0  0  0  0  0  0  0  0  0
   -2.5989  -32.8508   -5.6846 C   0  0  0  0  0  0  0  0  0  0  0  0
   -3.2323  -31.8197   -5.6217 C   0  0  0  0  0  0  0  0  0  0  0  0
   -4.0523  -30.6596   -6.1489 C   0  0  0  0  0  0  0  0  0  0  0  0
   -4.8797  -30.7732   -7.2031 C   0  0  0  0  0  0  0  0  0  0  0  0
   -5.9496  -29.8963   -7.3894 C   0  0  0  0  0  0  0  0  0  0  0  0
   -6.0381  -28.8346   -6.5388 C   0  0  0  0  0  0  0  0  0  0  0  0
   -5.1289  -28.5974   -5.5558 C   0  0  0  0  0  0  0  0  0  0  0  0
   -4.0942  -29.4737   -5.3347 C   0  0  0  0  0  0  0  0  0  0  0  0
   -1.5237  -35.1146   -5.7936 C   0  0  0  0  0  0  0  0  0  0  0  0
 11 12  4  0
 11 16  4  0
 10 11  1  0
 12 13  4  0
 13 14  4  0
 15 14  4  0
 16 15  4  0
  4  2  1  0
  2  1  2  0
  2  3  1  0
  4  5  4  0
 17  4  4  0
  6  5  4  0
  8  7  4  0
  7  6  4  0
  8 17  4  0
  9  8  1  0
  9 10  3  0
M  END
$$$$
