
     RDKit          3D

 17 18  0  0  0  0  0  0  0  0999 V2000
  -12.4370  -29.9970  -14.6180 O   0  0  0  0  0  0  0  0  0  0  0  0
  -11.7670  -30.8350  -15.2730 C   0  0  0  0  0  0  0  0  0  0  0  0
  -12.2790  -31.5040  -16.2210 O   0  0  0  0  0  0  0  0  0  0  0  0
  -10.3090  -31.0340  -14.9130 C   0  0  0  0  0  0  0  0  0  0  0  0
   -9.7000  -30.2470  -13.9430 C   0  0  0  0  0  0  0  0  0  0  0  0
   -8.4300  -30.4070  -13.6090 N   0  0  0  0  0  0  0  0  0  0  0  0
   -7.6980  -31.3250  -14.2090 C   0  0  0  0  0  0  0  0  0  0  0  0
   -8.2480  -32.1350  -15.1900 C   0  0  0  0  0  0  0  0  0  0  0  0
   -7.3930  -33.1880  -15.8480 C   0  0  0  0  0  0  0  0  0  0  0  0
   -6.7840  -34.0310  -16.3890 C   0  0  0  0  0  0  0  0  0  0  0  0
   -6.0570  -35.1770  -17.0490 C   0  0  0  0  0  0  0  0  0  0  0  0
   -4.9650  -34.9190  -17.8600 C   0  0  0  0  0  0  0  0  0  0  0  0
   -4.3160  -35.9630  -18.4790 C   0  0  0  0  0  0  0  0  0  0  0  0
   -4.7520  -37.2550  -18.2710 C   0  0  0  0  0  0  0  0  0  0  0  0
   -5.8250  -37.5120  -17.4480 C   0  0  0  0  0  0  0  0  0  0  0  0
   -6.4930  -36.4660  -16.8300 C   0  0  0  0  0  0  0  0  0  0  0  0
   -9.5670  -31.9980  -15.5540 C   0  0  0  0  0  0  0  0  0  0  0  0
 11 12  2  0
 11 16  1  0
 10 11  1  0
 12 13  1  0
 13 14  2  0
 15 14  1  0
 16 15  2  0
  4  2  1  0
  2  1  2  0
  2  3  1  0
  4  5  2  0
 17  4  1  0
  6  5  1  0
  8  7  1  0
  7  6  2  0
  8 17  2  0
  9  8  1  0
  9 10  3  0
M  END
$$$$
