
     RDKit          3D

 22 24  0  0  0  0  0  0  0  0999 V2000
  -12.4210  -31.4310  -14.5970 O   0  0  0  0  0  0  0  0  0  0  0  0
  -11.5030  -30.6370  -14.9150 C   0  0  0  0  0  0  0  0  0  0  0  0
  -11.7110  -29.4880  -15.3930 O   0  0  0  0  0  0  0  0  0  0  0  0
  -10.0690  -31.0850  -14.7300 C   0  0  0  0  0  0  0  0  0  0  0  0
   -9.3070  -30.3800  -13.8180 C   0  0  0  0  0  0  0  0  0  0  0  0
   -7.9970  -30.7140  -13.6000 C   0  0  0  0  0  0  0  0  0  0  0  0
   -7.4390  -31.7790  -14.2890 C   0  0  0  0  0  0  0  0  0  0  0  0
   -8.2150  -32.4650  -15.1930 C   0  0  0  0  0  0  0  0  0  0  0  0
   -7.5580  -33.5890  -15.9360 C   0  0  0  0  0  0  0  0  0  0  0  0
   -6.9680  -34.4640  -16.4330 C   0  0  0  0  0  0  0  0  0  0  0  0
   -6.2180  -35.6200  -17.0230 C   0  0  0  0  0  0  0  0  0  0  0  0
   -5.2520  -35.3840  -17.9790 C   0  0  0  0  0  0  0  0  0  0  0  0
   -4.5750  -36.4670  -18.5020 C   0  0  0  0  0  0  0  0  0  0  0  0
   -4.8840  -37.7310  -18.0580 C   0  0  0  0  0  0  0  0  0  0  0  0
   -5.8640  -37.9520  -17.1120 C   0  0  0  0  0  0  0  0  0  0  0  0
   -6.5350  -36.8770  -16.5770 C   0  0  0  0  0  0  0  0  0  0  0  0
   -9.5310  -32.1470  -15.4540 C   0  0  0  0  0  0  0  0  0  0  0  0
  -10.2890  -32.8150  -16.3470 N   0  0  0  0  0  0  0  0  0  0  0  0
  -10.8700  -32.2010  -17.3740 C   0  0  0  0  0  0  0  0  0  0  0  0
  -11.6020  -33.1330  -18.0920 C   0  0  0  0  0  0  0  0  0  0  0  0
  -11.4560  -34.3490  -17.4340 C   0  0  0  0  0  0  0  0  0  0  0  0
  -10.6170  -34.1070  -16.3540 C   0  0  0  0  0  0  0  0  0  0  0  0
 11 16  2  0
 16 15  1  0
 14 13  1  0
 15 14  2  0
 19 20  2  0
 18 19  1  0
 21 20  1  0
 22 21  2  0
 10 11  1  0
 11 12  1  0
  4  2  1  0
  2  1  2  0
  2  3  1  0
  4  5  2  0
 17  4  1  0
  6  5  1  0
  7  6  2  0
  8  7  1  0
  8 17  2  0
  9  8  1  0
 17 18  1  0
 18 22  1  0
  9 10  3  0
 12 13  2  0
M  END
$$$$
