
     RDKit          3D

 37 42  0  0  0  0  0  0  0  0999 V2000
   25.1910   -5.7950   11.3870 N   0  0  0  0  0  0  0  0  0  0  0  0
   25.7850   -4.7140   11.8860 C   0  0  0  0  0  0  0  0  0  0  0  0
   25.3300   -4.0950   12.8570 O   0  0  0  0  0  0  0  0  0  0  0  0
   27.0320   -4.2310   11.2090 C   0  0  0  0  0  0  0  0  0  0  0  0
   27.7840   -3.2370   11.8400 C   0  0  0  0  0  0  0  0  0  0  0  0
   28.8910   -2.6780   11.2140 C   0  0  0  0  0  0  0  0  0  0  0  0
   29.2670   -3.0890    9.9410 C   0  0  0  0  0  0  0  0  0  0  0  0
   28.5310   -4.0860    9.3010 C   0  0  0  0  0  0  0  0  0  0  0  0
   27.4490   -4.6690    9.9530 C   0  0  0  0  0  0  0  0  0  0  0  0
   26.9720   -5.7520    9.2380 O   0  0  0  0  0  0  0  0  0  0  0  0
   27.7410   -5.9100    8.1010 C   0  0  0  0  0  0  0  0  0  0  0  0
   27.5900   -6.8970    7.2140 C   0  0  0  0  0  0  0  0  0  0  0  0
   26.4770   -7.8010    6.9420 C   0  0  0  0  0  0  0  0  0  0  0  0
   25.2890   -7.8820    7.6740 C   0  0  0  0  0  0  0  0  0  0  0  0
   24.2890   -8.7720    7.3190 C   0  0  0  0  0  0  0  0  0  0  0  0
   24.4420   -9.6130    6.2200 C   0  0  0  0  0  0  0  0  0  0  0  0
   23.4020  -10.6170    5.8340 C   0  0  0  0  0  0  0  0  0  0  0  0
   22.8580  -10.5140    4.7570 O   0  0  0  0  0  0  0  0  0  0  0  0
   23.1330  -11.6420    6.6690 N   0  0  0  0  0  0  0  0  0  0  0  0
   23.7770  -11.8780    7.9710 C   0  0  0  0  0  0  0  0  0  0  0  0
   22.7320  -12.0820    9.0500 C   0  0  0  0  0  0  0  0  0  0  0  0
   21.8500  -13.1990    8.6890 N   0  0  0  0  0  0  0  0  0  0  0  0
   21.2500  -14.0040    9.6490 C   0  0  0  0  0  0  0  0  0  0  0  0
   21.8010  -14.1860   10.8780 N   0  0  0  0  0  0  0  0  0  0  0  0
   20.9370  -14.9950   11.5900 C   0  0  0  0  0  0  0  0  0  0  0  0
   20.9630  -15.4890   12.8890 C   0  0  0  0  0  0  0  0  0  0  0  0
   19.9070  -16.2850   13.3100 C   0  0  0  0  0  0  0  0  0  0  0  0
   18.8490  -16.5750   12.4540 C   0  0  0  0  0  0  0  0  0  0  0  0
   18.8260  -16.0760   11.1550 C   0  0  0  0  0  0  0  0  0  0  0  0
   19.8840  -15.2760   10.7200 C   0  0  0  0  0  0  0  0  0  0  0  0
   20.1040  -14.6360    9.4930 N   0  0  0  0  0  0  0  0  0  0  0  0
   21.1640  -12.9180    7.4210 C   0  0  0  0  0  0  0  0  0  0  0  0
   22.1800  -12.7010    6.3060 C   0  0  0  0  0  0  0  0  0  0  0  0
   25.6130   -9.5260    5.4760 C   0  0  0  0  0  0  0  0  0  0  0  0
   26.6130   -8.6380    5.8320 C   0  0  0  0  0  0  0  0  0  0  0  0
   28.7590   -4.8560    8.0590 C   0  0  0  0  0  0  0  0  0  0  0  0
   29.5740   -4.6610    7.1470 O   0  0  0  0  0  0  0  0  0  0  0  0
 19 17  1  0
 20 19  1  0
 19 33  1  0
 23 31  1  0
 31 30  1  0
  6  5  2  0
  7  6  1  0
 23 24  2  0
 24 25  1  0
 21 22  1  0
 22 23  1  0
 22 32  1  0
 13 12  1  0
 12 11  2  3
 14 13  2  0
 13 35  1  0
 36 37  2  0
  4  5  1  0
  9  4  2  0
  4  2  1  0
 15 14  1  0
  8  7  2  0
 36  8  1  0
  8  9  1  0
 11 36  1  0
 11 10  1  0
 16 15  2  0
 17 16  1  0
 16 34  1  0
 17 18  2  0
 20 21  1  0
 25 26  1  0
 25 30  2  0
 26 27  2  0
 27 28  1  0
 28 29  2  0
 29 30  1  0
 32 33  1  0
 34 35  2  0
 10  9  1  0
  2  3  2  0
  2  1  1  0
M  END
$$$$
