
     RDKit          3D

 37 42  0  0  0  0  0  0  0  0999 V2000
   25.2838   -5.2655   12.4690 N   0  0  0  0  0  0  0  0  0  0  0  0
   25.7229   -4.0239   12.6055 C   0  0  0  0  0  0  0  0  0  0  0  0
   25.0586   -3.1779   13.2422 O   0  0  0  0  0  0  0  0  0  0  0  0
   26.8926   -3.6167   11.7627 C   0  0  0  0  0  0  0  0  0  0  0  0
   27.5367   -2.4218   12.1042 C   0  0  0  0  0  0  0  0  0  0  0  0
   27.9639   -1.5186   11.1009 C   0  0  0  0  0  0  0  0  0  0  0  0
   27.8942   -1.9129    9.7874 C   0  0  0  0  0  0  0  0  0  0  0  0
   27.4090   -3.1908    9.4283 C   0  0  0  0  0  0  0  0  0  0  0  0
   27.0686   -4.0796   10.4684 C   0  0  0  0  0  0  0  0  0  0  0  0
   27.2160   -5.3886   10.0498 O   0  0  0  0  0  0  0  0  0  0  0  0
   27.5922   -5.3792    8.7067 C   0  0  0  0  0  0  0  0  0  0  0  0
   28.2381   -6.4145    8.1485 C   0  0  0  0  0  0  0  0  0  0  0  0
   27.8009   -7.7315    7.7962 C   0  0  0  0  0  0  0  0  0  0  0  0
   28.5950   -8.8887    7.6613 C   0  0  0  0  0  0  0  0  0  0  0  0
   28.0999  -10.1495    7.8002 C   0  0  0  0  0  0  0  0  0  0  0  0
   26.7611  -10.3243    8.2775 C   0  0  0  0  0  0  0  0  0  0  0  0
   26.4589  -11.1751    9.4847 C   0  0  0  0  0  0  0  0  0  0  0  0
   25.4098  -11.8438    9.4226 O   0  0  0  0  0  0  0  0  0  0  0  0
   26.8720  -10.6651   10.6911 N   0  0  0  0  0  0  0  0  0  0  0  0
   26.2456   -9.5392   11.4122 C   0  0  0  0  0  0  0  0  0  0  0  0
   25.8428   -9.7898   12.7772 C   0  0  0  0  0  0  0  0  0  0  0  0
   25.9924  -11.1916   13.2085 N   0  0  0  0  0  0  0  0  0  0  0  0
   24.9774  -12.1136   13.0629 C   0  0  0  0  0  0  0  0  0  0  0  0
   24.5662  -12.6057   11.8916 N   0  0  0  0  0  0  0  0  0  0  0  0
   24.2995  -13.9702   12.0440 C   0  0  0  0  0  0  0  0  0  0  0  0
   24.3125  -15.0345   11.1262 C   0  0  0  0  0  0  0  0  0  0  0  0
   24.2913  -16.3207   11.6729 C   0  0  0  0  0  0  0  0  0  0  0  0
   24.2821  -16.5357   13.0497 C   0  0  0  0  0  0  0  0  0  0  0  0
   24.2873  -15.4764   13.9182 C   0  0  0  0  0  0  0  0  0  0  0  0
   24.3813  -14.1493   13.4326 C   0  0  0  0  0  0  0  0  0  0  0  0
   24.6271  -12.9311   14.0602 N   0  0  0  0  0  0  0  0  0  0  0  0
   27.3506  -11.6451   12.9335 C   0  0  0  0  0  0  0  0  0  0  0  0
   27.8342  -11.4195   11.4693 C   0  0  0  0  0  0  0  0  0  0  0  0
   25.8949   -9.2301    8.0122 C   0  0  0  0  0  0  0  0  0  0  0  0
   26.4148   -7.9807    7.8112 C   0  0  0  0  0  0  0  0  0  0  0  0
   27.5765   -3.9999    8.2129 C   0  0  0  0  0  0  0  0  0  0  0  0
   27.4436   -3.7040    7.0398 O   0  0  0  0  0  0  0  0  0  0  0  0
 19 17  1  0
 20 19  1  0
 19 33  1  0
 23 31  4  0
 31 30  4  0
  6  5  4  0
  7  6  4  0
 23 24  4  0
 24 25  4  0
 21 22  1  0
 22 23  1  0
 22 32  1  0
 13 12  1  0
 12 11  2  3
 14 13  4  0
 13 35  4  0
 36 37  2  0
  4  5  4  0
  9  4  4  0
  4  2  1  0
 15 14  4  0
  8  7  4  0
 36  8  1  0
  8  9  4  0
 11 36  1  0
 11 10  1  0
 16 15  4  0
 17 16  1  0
 16 34  4  0
 17 18  2  0
 20 21  1  0
 25 26  4  0
 25 30  4  0
 26 27  4  0
 27 28  4  0
 28 29  4  0
 29 30  4  0
 32 33  1  0
 34 35  4  0
 10  9  1  0
  2  3  2  0
  2  1  1  0
M  END
$$$$
