
     RDKit          3D

 26 29  0  0  0  0  0  0  0  0999 V2000
   25.2780   -5.3584   12.7403 N   0  0  0  0  0  0  0  0  0  0  0  0
   25.7101   -4.1264   12.7700 C   0  0  0  0  0  0  0  0  0  0  0  0
   24.9214   -3.2016   12.9945 O   0  0  0  0  0  0  0  0  0  0  0  0
   26.9349   -3.7592   11.9141 C   0  0  0  0  0  0  0  0  0  0  0  0
   27.5673   -2.5513   12.2354 C   0  0  0  0  0  0  0  0  0  0  0  0
   28.0752   -1.7377   11.2609 C   0  0  0  0  0  0  0  0  0  0  0  0
   28.1100   -2.2039    9.9479 C   0  0  0  0  0  0  0  0  0  0  0  0
   27.6355   -3.4550    9.6258 C   0  0  0  0  0  0  0  0  0  0  0  0
   27.1856   -4.2860   10.6408 C   0  0  0  0  0  0  0  0  0  0  0  0
   27.3128   -5.6049   10.3018 O   0  0  0  0  0  0  0  0  0  0  0  0
   27.6041   -5.6743    8.9357 C   0  0  0  0  0  0  0  0  0  0  0  0
   27.9979   -6.8073    8.3179 C   0  0  0  0  0  0  0  0  0  0  0  0
   27.3795   -8.1024    8.3570 C   0  0  0  0  0  0  0  0  0  0  0  0
   27.8465   -9.1925    9.1242 C   0  0  0  0  0  0  0  0  0  0  0  0
   26.9896  -10.2209    9.4479 C   0  0  0  0  0  0  0  0  0  0  0  0
   25.6617  -10.2393    9.0275 C   0  0  0  0  0  0  0  0  0  0  0  0
   24.6667  -10.9037    9.8868 C   0  0  0  0  0  0  0  0  0  0  0  0
   24.4403  -10.4758   11.1961 N   0  0  0  0  0  0  0  0  0  0  0  0
   24.0913  -11.5492   11.9184 N   0  0  0  0  0  0  0  0  0  0  0  0
   23.9687  -12.5378   11.0671 N   0  0  0  0  0  0  0  0  0  0  0  0
   24.2145  -12.1028    9.8157 N   0  0  0  0  0  0  0  0  0  0  0  0
   25.3349   -9.3106    8.0602 C   0  0  0  0  0  0  0  0  0  0  0  0
   24.4432   -9.6872    7.0870 F   0  0  0  0  0  0  0  0  0  0  0  0
   26.1133   -8.2445    7.7449 C   0  0  0  0  0  0  0  0  0  0  0  0
   27.7786   -4.3012    8.4072 C   0  0  0  0  0  0  0  0  0  0  0  0
   27.7831   -3.9956    7.1847 O   0  0  0  0  0  0  0  0  0  0  0  0
 14 15  4  0
 13 14  4  0
 15 16  4  0
 16 22  4  0
 16 17  1  0
 22 23  1  0
 22 24  4  0
 11 12  2  3
 10 11  1  0
 11 25  1  0
 12 13  1  0
  4  5  4  0
  9  4  4  0
  4  2  1  0
 10  9  1  0
  5  6  4  0
  6  7  4  0
  7  8  4  0
  8 25  1  0
  8  9  4  0
 17 18  4  0
 17 21  4  0
 18 19  4  0
 19 20  4  0
 20 21  4  0
 24 13  4  0
 25 26  2  0
  2  3  2  0
  2  1  1  0
M  END
$$$$
