
     RDKit          3D

 34 38  0  0  0  0  0  0  0  0999 V2000
   24.8267   -4.7914   11.8551 N   0  0  0  0  0  0  0  0  0  0  0  0
   25.0922   -3.4210   12.0273 C   0  0  0  0  0  0  0  0  0  0  0  0
   24.4424   -2.7882   12.9343 O   0  0  0  0  0  0  0  0  0  0  0  0
   26.3483   -2.8531   11.4366 C   0  0  0  0  0  0  0  0  0  0  0  0
   27.2658   -2.2867   12.2719 C   0  0  0  0  0  0  0  0  0  0  0  0
   28.6239   -2.3307   12.0498 C   0  0  0  0  0  0  0  0  0  0  0  0
   29.1284   -2.7715   10.8442 C   0  0  0  0  0  0  0  0  0  0  0  0
   28.2397   -3.3640    9.9692 C   0  0  0  0  0  0  0  0  0  0  0  0
   26.8800   -3.2436   10.1624 C   0  0  0  0  0  0  0  0  0  0  0  0
   26.1917   -3.8710    9.1489 O   0  0  0  0  0  0  0  0  0  0  0  0
   27.1036   -4.7452    8.5010 C   0  0  2  0  0  0  0  0  0  0  0  0
   26.7248   -5.8266    7.8421 C   0  0  0  0  0  0  0  0  0  0  0  0
   27.2292   -7.2178    7.9248 C   0  0  0  0  0  0  0  0  0  0  0  0
   28.5611   -7.4577    8.3388 C   0  0  0  0  0  0  0  0  0  0  0  0
   28.7840   -8.4180    9.3340 C   0  0  0  0  0  0  0  0  0  0  0  0
   27.7804   -9.3377    9.6676 C   0  0  0  0  0  0  0  0  0  0  0  0
   28.0803  -10.5320   10.4778 C   0  0  0  0  0  0  0  0  0  0  0  0
   29.0254  -10.4644   11.2661 O   0  0  0  0  0  0  0  0  0  0  0  0
   27.0698  -11.4325   10.7712 N   0  0  0  0  0  0  0  0  0  0  0  0
   26.0301  -11.7003    9.7638 C   0  0  0  0  0  0  0  0  0  0  0  0
   24.7211  -11.8624   10.4284 C   0  0  0  0  0  0  0  0  0  0  0  0
   24.7713  -12.9383   11.4092 N   0  0  0  0  0  0  0  0  0  0  0  0
   24.3297  -14.2125   11.1603 C   0  0  0  0  0  0  0  0  0  0  0  0
   25.2711  -15.1431   11.1472 N   0  0  0  0  0  0  0  0  0  0  0  0
   24.8371  -16.4257   11.1543 C   0  0  0  0  0  0  0  0  0  0  0  0
   23.4761  -16.7285   11.1542 C   0  0  0  0  0  0  0  0  0  0  0  0
   22.6086  -15.6795   11.1546 C   0  0  0  0  0  0  0  0  0  0  0  0
   22.9965  -14.3817   11.1576 N   0  0  0  0  0  0  0  0  0  0  0  0
   25.7591  -12.6219   12.4589 C   0  0  0  0  0  0  0  0  0  0  0  0
   27.1043  -12.4860   11.8361 C   0  0  0  0  0  0  0  0  0  0  0  0
   26.5279   -9.2180    9.0687 C   0  0  0  0  0  0  0  0  0  0  0  0
   26.2963   -8.2020    8.1047 C   0  0  0  0  0  0  0  0  0  0  0  0
   28.3972   -4.5088    9.0667 C   0  0  0  0  0  0  0  0  0  0  0  0
   29.4377   -5.2656    8.9460 O   0  0  0  0  0  0  0  0  0  0  0  0
 18 17  2  0
 17 19  1  0
 17 16  1  0
 19 20  1  0
 19 30  1  0
 20 21  1  0
 21 22  1  0
 22 23  1  0
 22 29  1  0
 23 24  4  0
 23 28  4  0
 24 25  4  0
 25 26  4  0
 26 27  4  0
 27 28  4  0
 29 30  1  0
 16 15  4  0
 16 31  4  0
 15 14  4  0
 14 13  4  0
 31 32  4  0
 32 13  4  0
 13 12  1  0
 11 12  1  1
 11 33  1  0
 11 10  1  0
 33 34  2  0
 33  8  1  0
 10  9  1  0
  9  4  4  0
  9  8  4  0
  4  2  1  0
  4  5  4  0
  2  3  2  0
  2  1  1  0
  8  7  4  0
  7  6  4  0
  6  5  4  0
M  END
$$$$
