
     RDKit          3D

 34 39  0  0  0  0  0  0  0  0999 V2000
   24.8700   -6.0420   12.8310 N   0  0  0  0  0  0  0  0  0  0  0  0
   25.5040   -4.9280   13.2070 C   0  0  0  0  0  0  0  0  0  0  0  0
   25.1670   -4.2690   14.2050 O   0  0  0  0  0  0  0  0  0  0  0  0
   26.6630   -4.4740   12.3830 C   0  0  0  0  0  0  0  0  0  0  0  0
   27.4570   -3.4600   12.9210 C   0  0  0  0  0  0  0  0  0  0  0  0
   28.5780   -3.0110   12.2500 C   0  0  0  0  0  0  0  0  0  0  0  0
   28.9230   -3.5460   11.0200 C   0  0  0  0  0  0  0  0  0  0  0  0
   28.1360   -4.5490   10.4630 C   0  0  0  0  0  0  0  0  0  0  0  0
   27.0190   -5.0170   11.1440 C   0  0  0  0  0  0  0  0  0  0  0  0
   26.4370   -6.0700   10.4640 O   0  0  0  0  0  0  0  0  0  0  0  0
   27.1690   -6.3200    9.3190 C   0  0  0  0  0  0  0  0  0  0  0  0
   26.8360   -7.2160    8.3870 C   0  0  0  0  0  0  0  0  0  0  0  0
   25.6360   -8.0210    8.1980 C   0  0  0  0  0  0  0  0  0  0  0  0
   25.6050   -8.7740    7.0230 C   0  0  0  0  0  0  0  0  0  0  0  0
   24.4940   -9.5190    6.6770 C   0  0  0  0  0  0  0  0  0  0  0  0
   23.3800   -9.5650    7.5110 C   0  0  0  0  0  0  0  0  0  0  0  0
   22.1740  -10.3250    7.0600 C   0  0  0  0  0  0  0  0  0  0  0  0
   21.1650   -9.7110    6.7740 O   0  0  0  0  0  0  0  0  0  0  0  0
   22.2820  -11.6540    6.8520 N   0  0  0  0  0  0  0  0  0  0  0  0
   21.2820  -12.4420    6.1160 C   0  0  0  0  0  0  0  0  0  0  0  0
   20.5580  -13.4180    7.0460 C   0  0  0  0  0  0  0  0  0  0  0  0
   21.2820  -13.5260    8.3310 N   0  0  0  0  0  0  0  0  0  0  0  0
   22.5690  -13.0930    8.5390 C   0  0  0  0  0  0  0  0  0  0  0  0
   22.9340  -13.2840    9.7830 N   0  0  0  0  0  0  0  0  0  0  0  0
   21.8530  -13.8730   10.4390 N   0  0  0  0  0  0  0  0  0  0  0  0
   20.8880  -14.0130    9.5560 C   0  0  0  0  0  0  0  0  0  0  0  0
   19.5470  -14.6330    9.8090 C   0  0  1  0  0  0  0  0  0  0  0  0
   19.0630  -15.7450    8.9160 C   0  0  0  0  0  0  0  0  0  0  0  0
   19.4230  -16.0440   10.3190 C   0  0  0  0  0  0  0  0  0  0  0  0
   23.3540  -12.4690    7.4210 C   0  0  0  0  0  0  0  0  0  0  0  0
   23.4150   -8.8510    8.7060 C   0  0  0  0  0  0  0  0  0  0  0  0
   24.5210   -8.0880    9.0410 C   0  0  0  0  0  0  0  0  0  0  0  0
   28.2860   -5.3780    9.2480 C   0  0  0  0  0  0  0  0  0  0  0  0
   29.1250   -5.3020    8.3510 O   0  0  0  0  0  0  0  0  0  0  0  0
 18 17  2  0
 17 19  1  0
 17 16  1  0
 19 30  1  0
 19 20  1  0
 30 23  1  0
 23 24  2  0
 23 22  1  0
 24 25  1  0
 25 26  2  0
 27 26  1  6
 26 22  1  0
 27 28  1  0
 27 29  1  0
 28 29  2  0
 22 21  1  0
 21 20  1  0
 16 15  2  0
 16 31  1  0
 15 14  1  0
 14 13  2  0
 31 32  2  0
 32 13  1  0
 13 12  1  0
 12 11  2  0
 11 33  1  0
 11 10  1  0
 33 34  2  0
 33  8  1  0
 10  9  1  0
  9  4  2  0
  9  8  1  0
  4  2  1  0
  4  5  1  0
  2  3  2  0
  2  1  1  0
  8  7  2  0
  7  6  1  0
  6  5  2  0
M  END
$$$$
