
     RDKit          3D

 34 39  0  0  0  0  0  0  0  0999 V2000
   24.6658   -4.9618   13.5230 N   0  0  0  0  0  0  0  0  0  0  0  0
   25.0562   -3.6275   13.4857 C   0  0  0  0  0  0  0  0  0  0  0  0
   24.9815   -2.9805   14.5448 O   0  0  0  0  0  0  0  0  0  0  0  0
   25.8823   -3.1690   12.3851 C   0  0  0  0  0  0  0  0  0  0  0  0
   26.7358   -2.1293   12.6876 C   0  0  0  0  0  0  0  0  0  0  0  0
   28.0575   -2.1173   12.1845 C   0  0  0  0  0  0  0  0  0  0  0  0
   28.4790   -3.0683   11.3272 C   0  0  0  0  0  0  0  0  0  0  0  0
   27.5497   -4.0317   10.8626 C   0  0  0  0  0  0  0  0  0  0  0  0
   26.2200   -3.9471   11.2869 C   0  0  0  0  0  0  0  0  0  0  0  0
   25.5000   -5.0236   10.7610 O   0  0  0  0  0  0  0  0  0  0  0  0
   26.4290   -5.8740   10.0930 C   0  0  0  0  0  0  0  0  0  0  0  0
   26.0497   -6.9800    9.4910 C   0  0  0  0  0  0  0  0  0  0  0  0
   24.9449   -7.9189    9.7161 C   0  0  0  0  0  0  0  0  0  0  0  0
   24.2753   -7.7004   10.8947 C   0  0  0  0  0  0  0  0  0  0  0  0
   24.0333   -8.6858   11.8507 C   0  0  0  0  0  0  0  0  0  0  0  0
   24.5523   -9.9772   11.6011 C   0  0  0  0  0  0  0  0  0  0  0  0
   25.6317  -10.4181   12.5259 C   0  0  0  0  0  0  0  0  0  0  0  0
   25.4787  -10.2353   13.7061 O   0  0  0  0  0  0  0  0  0  0  0  0
   26.8879  -10.4048   11.9857 N   0  0  0  0  0  0  0  0  0  0  0  0
   27.9899  -11.2662   12.5320 C   0  0  0  0  0  0  0  0  0  0  0  0
   29.3067  -10.4696   12.6826 C   0  0  0  0  0  0  0  0  0  0  0  0
   29.2981   -9.5676   11.5312 N   0  0  0  0  0  0  0  0  0  0  0  0
   28.1406   -8.6947   11.3671 C   0  0  0  0  0  0  0  0  0  0  0  0
   27.6862   -8.6360   12.7365 N   0  0  0  0  0  0  0  0  0  0  0  0
   27.7285  -10.1096   12.9065 N   0  0  0  0  0  0  0  0  0  0  0  0
   28.0724  -10.5035   11.6137 C   0  0  0  0  0  0  0  0  0  0  0  0
   28.4449  -11.9589   11.3793 C   0  0  2  0  0  0  0  0  0  0  0  0
   27.4193  -12.8854   10.8651 C   0  0  0  0  0  0  0  0  0  0  0  0
   27.9435  -13.0243   12.2577 C   0  0  0  0  0  0  0  0  0  0  0  0
   27.1863   -9.9027   10.6730 C   0  0  0  0  0  0  0  0  0  0  0  0
   24.6912  -10.3096   10.1961 C   0  0  0  0  0  0  0  0  0  0  0  0
   24.9436   -9.3119    9.3207 C   0  0  0  0  0  0  0  0  0  0  0  0
   27.7586   -5.3757   10.2768 C   0  0  0  0  0  0  0  0  0  0  0  0
   28.7768   -6.0993   10.2732 O   0  0  0  0  0  0  0  0  0  0  0  0
 18 17  2  0
 17 19  1  0
 17 16  1  0
 19 30  1  0
 19 20  1  0
 30 23  1  0
 23 24  4  0
 23 22  4  0
 24 25  4  0
 25 26  4  0
 27 26  1  6
 26 22  4  0
 27 28  1  0
 27 29  1  0
 28 29  2  0
 22 21  1  0
 21 20  1  0
 16 15  4  0
 16 31  4  0
 15 14  4  0
 14 13  4  0
 31 32  4  0
 32 13  4  0
 13 12  1  0
 12 11  2  0
 11 33  1  0
 11 10  1  0
 33 34  2  0
 33  8  1  0
 10  9  1  0
  9  4  4  0
  9  8  4  0
  4  2  1  0
  4  5  4  0
  2  3  2  0
  2  1  1  0
  8  7  4  0
  7  6  4  0
  6  5  4  0
M  END
$$$$
