
     RDKit          3D

 34 38  0  0  0  0  0  0  0  0999 V2000
   25.8570   -5.7350   11.1700 N   0  0  0  0  0  0  0  0  0  0  0  0
   26.4670   -4.6490   11.6430 C   0  0  0  0  0  0  0  0  0  0  0  0
   26.0220   -4.0270   12.6470 O   0  0  0  0  0  0  0  0  0  0  0  0
   27.7150   -4.1770   10.9470 C   0  0  0  0  0  0  0  0  0  0  0  0
   28.4820   -3.1950   11.5820 C   0  0  0  0  0  0  0  0  0  0  0  0
   29.6230   -2.6740   10.9890 C   0  0  0  0  0  0  0  0  0  0  0  0
   30.0240   -3.1000    9.7350 C   0  0  0  0  0  0  0  0  0  0  0  0
   29.2780   -4.0790    9.0860 C   0  0  0  0  0  0  0  0  0  0  0  0
   28.1540   -4.6340    9.6980 C   0  0  0  0  0  0  0  0  0  0  0  0
   27.6430   -5.6750    8.9400 O   0  0  0  0  0  0  0  0  0  0  0  0
   28.4300   -5.8080    7.8050 C   0  0  0  0  0  0  0  0  0  0  0  0
   28.2680   -6.7410    6.8670 C   0  0  0  0  0  0  0  0  0  0  0  0
   27.2460   -7.7510    6.6520 C   0  0  0  0  0  0  0  0  0  0  0  0
   26.1370   -8.0330    7.4450 C   0  0  0  0  0  0  0  0  0  0  0  0
   25.3020   -9.0960    7.1500 C   0  0  0  0  0  0  0  0  0  0  0  0
   25.5420   -9.9040    6.0410 C   0  0  0  0  0  0  0  0  0  0  0  0
   24.6950  -11.1170    5.8060 C   0  0  0  0  0  0  0  0  0  0  0  0
   23.6270  -11.2560    6.3940 O   0  0  0  0  0  0  0  0  0  0  0  0
   25.1720  -12.0400    4.9650 N   0  0  0  0  0  0  0  0  0  0  0  0
   24.4250  -13.2440    4.6140 C   0  0  0  0  0  0  0  0  0  0  0  0
   25.2750  -14.4930    4.7470 C   0  0  0  0  0  0  0  0  0  0  0  0
   25.4820  -14.8870    6.1680 C   0  0  0  0  0  0  0  0  0  0  0  0
   25.0160  -16.0550    6.6720 N   0  0  0  0  0  0  0  0  0  0  0  0
   25.3880  -16.1020    8.0020 C   0  0  0  0  0  0  0  0  0  0  0  0
   25.2140  -17.0560    8.9960 C   0  0  0  0  0  0  0  0  0  0  0  0
   25.7730  -16.8120   10.2440 C   0  0  0  0  0  0  0  0  0  0  0  0
   26.4670  -15.6330   10.4940 C   0  0  0  0  0  0  0  0  0  0  0  0
   26.6350  -14.6810    9.4950 C   0  0  0  0  0  0  0  0  0  0  0  0
   26.0910  -14.9220    8.2350 C   0  0  0  0  0  0  0  0  0  0  0  0
   26.1360  -14.1680    7.0610 N   0  0  0  0  0  0  0  0  0  0  0  0
   26.6240   -9.5990    5.2190 C   0  0  0  0  0  0  0  0  0  0  0  0
   27.4670   -8.5500    5.5270 C   0  0  0  0  0  0  0  0  0  0  0  0
   29.4870   -4.7990    7.8220 C   0  0  0  0  0  0  0  0  0  0  0  0
   30.3090   -4.5720    6.9100 O   0  0  0  0  0  0  0  0  0  0  0  0
  2  1  1  0
  2  3  2  0
  4  2  1  0
  4  5  2  0
  9  4  1  0
 14 15  2  0
 13 14  1  0
 15 16  1  0
 16 17  1  0
 16 31  2  0
 17 19  1  0
 17 18  2  0
  6  5  1  0
  7  6  2  0
  8  7  1  0
 33  8  1  0
  8  9  2  0
 11 33  1  0
 33 34  2  0
 12 11  2  3
 11 10  1  0
 12 13  1  0
 13 32  2  0
 19 20  1  0
 20 21  1  0
 21 22  1  0
 22 23  2  0
 22 30  1  0
 23 24  1  0
 24 25  2  0
 24 29  1  0
 25 26  1  0
 26 27  2  0
 27 28  1  0
 28 29  2  0
 29 30  1  0
 31 32  1  0
 10  9  1  0
M  END
$$$$
