
     RDKit          3D

 55 59  0  0  0  0  0  0  0  0999 V2000
   -4.0922    7.7537   -3.4917 C   0  0  0  0  0  0  0  0  0  0  0  0
   -3.9767    8.7382   -2.3818 C   0  0  0  0  0  0  0  0  0  0  0  0
   -3.5099    9.8277   -2.6269 O   0  0  0  0  0  0  0  0  0  0  0  0
   -4.8321    8.6613   -1.3779 N   0  0  0  0  0  0  0  0  0  0  0  0
   -5.1966    9.8319   -0.6347 C   0  0  2  0  0  0  0  0  0  0  0  0
   -4.0417   10.7994   -0.4052 C   0  0  0  0  0  0  0  0  0  0  0  0
   -4.0701   12.2542   -0.5728 C   0  0  1  0  0  0  0  0  0  0  0  0
   -3.1280   13.0097    0.3711 C   0  0  0  0  0  0  0  0  0  0  0  0
   -3.6768   12.7667   -1.9858 C   0  0  0  0  0  0  0  0  0  0  0  0
   -5.7427    9.4435    0.7268 C   0  0  0  0  0  0  0  0  0  0  0  0
   -4.9131    9.4888    1.6486 O   0  0  0  0  0  0  0  0  0  0  0  0
   -6.5712    8.5622    0.8372 N   0  0  0  0  0  0  0  0  0  0  0  0
   -7.0043    7.9645    2.1080 C   0  0  1  0  0  0  0  0  0  0  0  0
   -5.7790    7.6933    2.9773 C   0  0  0  0  0  0  0  0  0  0  0  0
   -4.7045    6.8900    2.3096 C   0  0  0  0  0  0  0  0  0  0  0  0
   -4.6255    6.5231    0.9717 C   0  0  0  0  0  0  0  0  0  0  0  0
   -3.4125    5.9419    0.7241 N   0  0  0  0  0  0  0  0  0  0  0  0
   -2.7300    5.8047    1.8760 C   0  0  0  0  0  0  0  0  0  0  0  0
   -1.4483    5.3301    2.0924 C   0  0  0  0  0  0  0  0  0  0  0  0
   -0.9051    5.5326    3.3488 C   0  0  0  0  0  0  0  0  0  0  0  0
   -1.6630    6.1047    4.3850 C   0  0  0  0  0  0  0  0  0  0  0  0
   -2.9503    6.4999    4.2024 C   0  0  0  0  0  0  0  0  0  0  0  0
   -3.4896    6.3685    2.8880 C   0  0  0  0  0  0  0  0  0  0  0  0
   -8.0430    8.7769    2.8002 C   0  0  0  0  0  0  0  0  0  0  0  0
   -9.2683    8.7004    2.5284 O   0  0  0  0  0  0  0  0  0  0  0  0
   -7.6370    9.5656    3.8271 N   0  0  0  0  0  0  0  0  0  0  0  0
   -7.2183    8.8873    5.0760 C   0  0  2  0  0  0  0  0  0  0  0  0
   -5.8722    9.4153    5.5029 C   0  0  0  0  0  0  0  0  0  0  0  0
   -4.7809    9.0100    4.6624 C   0  0  0  0  0  0  0  0  0  0  0  0
   -4.8412    8.6852    3.3054 C   0  0  0  0  0  0  0  0  0  0  0  0
   -3.6147    8.2230    2.8379 N   0  0  0  0  0  0  0  0  0  0  0  0
   -2.7333    8.2298    3.9130 C   0  0  0  0  0  0  0  0  0  0  0  0
   -1.4611    7.7014    3.9908 C   0  0  0  0  0  0  0  0  0  0  0  0
   -0.8413    7.7172    5.2180 C   0  0  0  0  0  0  0  0  0  0  0  0
   -1.4590    8.2470    6.3527 C   0  0  0  0  0  0  0  0  0  0  0  0
   -2.7656    8.7848    6.2615 C   0  0  0  0  0  0  0  0  0  0  0  0
   -3.4233    8.7257    5.0537 C   0  0  0  0  0  0  0  0  0  0  0  0
   -7.1268    7.4111    4.7844 C   0  0  0  0  0  0  0  0  0  0  0  0
   -6.6292    7.0122    3.7160 O   0  0  0  0  0  0  0  0  0  0  0  0
   -7.8320    6.6014    5.5797 N   0  0  0  0  0  0  0  0  0  0  0  0
   -8.1498    5.1683    5.2975 C   0  0  0  0  0  0  0  0  0  0  0  0
   -9.5853    5.1022    5.7918 C   0  0  0  0  0  0  0  0  0  0  0  0
   -9.7386    6.0272    6.8735 C   0  0  0  0  0  0  0  0  0  0  0  0
   -8.7068    7.1774    6.5465 C   0  0  1  0  0  0  0  0  0  0  0  0
   -7.9752    7.5942    7.7876 C   0  0  0  0  0  0  0  0  0  0  0  0
   -6.7527    7.8886    7.7038 O   0  0  0  0  0  0  0  0  0  0  0  0
   -8.5457    7.2105    8.9404 N   0  0  0  0  0  0  0  0  0  0  0  0
   -7.9771    6.0606    9.7183 C   0  0  1  0  0  0  0  0  0  0  0  0
   -6.5431    6.2761   10.1645 C   0  0  0  0  0  0  0  0  0  0  0  0
   -5.6164    5.1988    9.6700 C   0  0  0  0  0  0  0  0  0  0  0  0
   -5.4584    5.1609    8.3915 O   0  0  0  0  0  0  0  0  0  0  0  0
   -5.2477    4.3856   10.5262 O   0  0  0  0  0  1  0  0  0  0  0  0
   -8.8285    5.8306   10.9518 C   0  0  0  0  0  0  0  0  0  0  0  0
  -10.0362    5.5105   10.9618 O   0  0  0  0  0  0  0  0  0  0  0  0
   -8.2475    5.6663   12.0631 O   0  0  0  0  0  1  0  0  0  0  0  0
  2  3  2  0
  2  1  1  0
  2  4  1  0
  4  5  1  0
  5 10  1  0
  5  6  1  6
 10 11  2  0
 10 12  1  0
  6  7  1  0
  7  8  1  1
  7  9  1  0
 12 13  1  0
 13 24  1  0
 13 14  1  1
 24 25  2  0
 24 26  1  0
 14 15  1  0
 15 16  4  0
 15 23  4  0
 16 17  4  0
 23 18  4  0
 23 22  4  0
 17 18  4  0
 18 19  4  0
 22 21  4  0
 19 20  4  0
 21 20  4  0
 26 27  1  0
 27 38  1  0
 27 28  1  1
 38 39  2  0
 38 40  1  0
 28 29  1  0
 29 30  4  0
 29 37  4  0
 30 31  4  0
 37 32  4  0
 37 36  4  0
 31 32  4  0
 32 33  4  0
 36 35  4  0
 33 34  4  0
 35 34  4  0
 40 44  1  0
 40 41  1  0
 44 45  1  1
 44 43  1  0
 45 46  2  0
 45 47  1  0
 43 42  1  0
 42 41  1  0
 47 48  1  0
 48 53  1  0
 48 49  1  1
 53 55  1  0
 53 54  2  0
 49 50  1  0
 50 52  1  0
 50 51  2  0
M  CHG  2  52  -1  55  -1
M  END
$$$$
