
     RDKit          3D

 42 44  0  0  0  0  0  0  0  0999 V2000
    6.9043  -18.5476   33.0899 C   0  0  0  0  0  0  0  0  0  0  0  0
    5.4601  -18.0857   33.0334 C   0  0  0  0  0  0  0  0  0  0  0  0
    4.3217  -19.0541   33.2893 C   0  0  0  0  0  0  0  0  0  0  0  0
    3.4638  -19.4185   32.0906 N   0  0  0  0  0  0  0  0  0  0  0  0
    2.1412  -18.8523   32.0175 C   0  0  0  0  0  0  0  0  0  0  0  0
    1.8317  -17.9336   31.0045 C   0  0  0  0  0  0  0  0  0  0  0  0
    0.5720  -17.3080   30.8999 C   0  0  0  0  0  0  0  0  0  0  0  0
   -0.4225  -17.6166   31.8584 C   0  0  0  0  0  0  0  0  0  0  0  0
   -0.1208  -18.5999   32.8625 C   0  0  0  0  0  0  0  0  0  0  0  0
    1.1239  -19.1234   32.9553 C   0  0  0  0  0  0  0  0  0  0  0  0
   -1.2092  -18.8361   33.9056 C   0  0  0  0  0  0  0  0  0  0  0  0
   -0.8198  -18.8642   35.0876 O   0  0  0  0  0  0  0  0  0  0  0  0
   -2.5768  -18.8493   33.6988 N   0  0  0  0  0  0  0  0  0  0  0  0
   -3.6732  -19.0192   34.6847 C   0  0  2  0  0  0  0  0  0  0  0  0
   -4.2149  -20.4971   34.9956 C   0  0  0  0  0  0  0  0  0  0  0  0
   -3.1690  -21.5860   35.1306 N   0  0  0  0  0  0  0  0  0  0  0  0
   -3.1362  -22.3427   36.3642 C   0  0  2  0  0  0  0  0  0  0  0  0
   -3.1395  -21.5368   37.7545 C   0  0  0  0  0  0  0  0  0  0  0  0
   -2.4865  -20.5125   37.7141 O   0  0  0  0  0  0  0  0  0  0  0  0
   -3.9579  -21.8026   38.8912 N   0  0  0  0  0  0  0  0  0  0  0  0
   -4.2661  -20.7550   39.9425 C   0  0  0  0  0  0  0  0  0  0  0  0
   -5.7245  -20.7468   40.4697 C   0  0  2  0  0  0  0  0  0  0  0  0
   -6.0155  -19.4140   41.2867 C   0  0  0  0  0  0  0  0  0  0  0  0
   -5.9382  -21.9059   41.3848 C   0  0  0  0  0  0  0  0  0  0  0  0
   -2.1182  -23.4836   36.3549 C   0  0  2  0  0  0  0  0  0  0  0  0
   -1.3027  -23.6424   37.6361 C   0  0  0  0  0  0  0  0  0  0  0  0
   -1.2977  -23.1960   35.2711 O   0  0  0  0  0  0  0  0  0  0  0  0
   -4.8369  -18.0714   34.0756 C   0  0  0  0  0  0  0  0  0  0  0  0
   -4.3162  -16.7344   33.4825 C   0  0  0  0  0  0  0  0  0  0  0  0
   -4.0437  -15.6124   34.2691 C   0  0  0  0  0  0  0  0  0  0  0  0
   -3.8018  -14.3734   33.7084 C   0  0  0  0  0  0  0  0  0  0  0  0
   -3.6216  -14.2303   32.3161 C   0  0  0  0  0  0  0  0  0  0  0  0
   -3.6968  -15.3713   31.4890 C   0  0  0  0  0  0  0  0  0  0  0  0
   -4.1514  -16.5339   32.0967 C   0  0  0  0  0  0  0  0  0  0  0  0
   -3.5735  -15.2762   29.9697 C   0  0  0  0  0  0  0  0  0  0  0  0
   -2.3015  -15.8578   29.3750 C   0  0  0  0  0  0  0  0  0  0  0  0
   -0.9638  -15.3403   29.9151 C   0  0  0  0  0  0  0  0  0  0  0  0
    0.2213  -16.2709   29.8100 C   0  0  0  0  0  0  0  0  0  0  0  0
    4.1291  -20.2753   30.8533 S   0  0  1  0  0  0  0  0  0  0  0  0
    5.7620  -19.7983   30.7136 C   0  0  0  0  0  0  0  0  0  0  0  0
    4.0771  -21.6688   31.1342 O   0  0  0  0  0  0  0  0  0  0  0  0
    3.5247  -19.9299   29.5793 O   0  0  0  0  0  0  0  0  0  0  0  0
 22 23  1  6
 21 22  1  0
 22 24  1  0
  8  7  4  0
  9  8  4  0
  7 38  1  0
  7  6  4  0
 38 37  1  0
 37 36  1  0
 36 35  1  0
 35 33  1  0
 33 32  4  0
 33 34  4  0
 32 31  4  0
 31 30  4  0
 11 12  2  0
 13 11  1  0
 11  9  1  0
 14 13  1  0
 14 28  1  0
 14 15  1  6
 28 29  1  0
 16 15  1  0
 17 16  1  1
 17 25  1  0
 18 17  1  0
 25 27  1  0
 25 26  1  1
 20 18  1  0
 18 19  2  0
 20 21  1  0
  9 10  4  0
 30 29  4  0
 29 34  4  0
  6  5  4  0
  5  4  1  0
  5 10  4  0
  4  3  1  0
  4 39  1  0
  3  2  1  0
  2  1  1  0
 39 41  2  0
 39 40  1  1
 39 42  2  0
M  CHG  1  16   1
M  END
$$$$
