
     RDKit          3D

 43 45  0  0  0  0  0  0  0  0999 V2000
   -3.0891  -20.0061   37.1531 C   0  0  0  0  0  0  0  0  0  0  0  0
   -3.3030  -21.5521   37.2623 C   0  0  0  0  0  0  0  0  0  0  0  0
   -2.5165  -22.2474   36.2401 C   0  0  0  0  0  0  0  0  0  0  0  0
   -2.8202  -21.9004   34.8027 C   0  0  0  0  0  0  0  0  0  0  0  0
   -3.8799  -20.7671   34.6212 C   0  0  2  0  0  0  0  0  0  0  0  0
   -3.6360  -20.0100   33.3679 N   0  0  0  0  0  0  0  0  0  0  0  0
   -4.8077  -19.3012   32.7756 C   0  0  0  0  0  0  0  0  0  0  0  0
   -4.4474  -17.7755   32.5720 C   0  0  2  0  0  0  0  0  0  0  0  0
   -5.5813  -16.8829   32.0435 C   0  0  0  0  0  0  0  0  0  0  0  0
   -5.0810  -15.6085   31.4162 C   0  0  0  0  0  0  0  0  0  0  0  0
   -4.9053  -14.4727   32.2078 C   0  0  0  0  0  0  0  0  0  0  0  0
   -4.5486  -13.2273   31.6066 C   0  0  0  0  0  0  0  0  0  0  0  0
   -4.3244  -13.1797   30.2086 C   0  0  0  0  0  0  0  0  0  0  0  0
   -4.4015  -14.3382   29.4280 C   0  0  0  0  0  0  0  0  0  0  0  0
   -4.8956  -15.5144   30.0273 C   0  0  0  0  0  0  0  0  0  0  0  0
   -4.2323  -14.2535   27.9443 C   0  0  0  0  0  0  0  0  0  0  0  0
   -2.9766  -14.9453   27.3820 C   0  0  0  0  0  0  0  0  0  0  0  0
   -1.6484  -14.4559   28.0650 C   0  0  0  0  0  0  0  0  0  0  0  0
   -0.4272  -15.3710   27.8615 C   0  0  0  0  0  0  0  0  0  0  0  0
   -0.0953  -16.2627   29.0313 C   0  0  0  0  0  0  0  0  0  0  0  0
   -1.0907  -16.5721   29.9446 C   0  0  0  0  0  0  0  0  0  0  0  0
   -0.8563  -17.3953   31.0221 C   0  0  0  0  0  0  0  0  0  0  0  0
    0.4856  -17.8086   31.2518 C   0  0  0  0  0  0  0  0  0  0  0  0
    1.5306  -17.4757   30.3801 C   0  0  0  0  0  0  0  0  0  0  0  0
    2.8755  -17.9673   30.6008 N   0  0  0  0  0  0  0  0  0  0  0  0
    3.7067  -17.5143   31.7809 C   0  0  0  0  0  0  0  0  0  0  0  0
    5.2028  -17.2420   31.4767 C   0  0  0  0  0  0  0  0  0  0  0  0
    5.5131  -16.8988   30.0378 C   0  0  0  0  0  0  0  0  0  0  0  0
    3.6610  -18.8237   29.3974 S   0  0  1  0  0  0  0  0  0  0  0  0
    4.5570  -17.7549   28.4586 C   0  0  0  0  0  0  0  0  0  0  0  0
    4.5307  -19.7236   29.9833 O   0  0  0  0  0  0  0  0  0  0  0  0
    2.6491  -19.2998   28.5006 O   0  0  0  0  0  0  0  0  0  0  0  0
    1.2103  -16.7513   29.2229 C   0  0  0  0  0  0  0  0  0  0  0  0
   -1.9240  -17.6733   32.0257 C   0  0  0  0  0  0  0  0  0  0  0  0
   -1.6328  -17.7328   33.2273 O   0  0  0  0  0  0  0  0  0  0  0  0
   -3.2704  -17.6010   31.6775 N   0  0  0  0  0  0  0  0  0  0  0  0
   -3.9089  -19.8494   35.8515 C   0  0  0  0  0  0  0  0  0  0  0  0
   -2.9433  -19.1293   36.1244 O   0  0  0  0  0  0  0  0  0  0  0  0
   -4.8754  -20.0595   36.7963 N   0  0  0  0  0  0  0  0  0  0  0  0
   -5.6071  -18.9819   37.4466 C   0  0  0  0  0  0  0  0  0  0  0  0
   -5.8435  -19.2450   38.9404 C   0  0  1  0  0  0  0  0  0  0  0  0
   -6.2502  -17.9966   39.7171 C   0  0  0  0  0  0  0  0  0  0  0  0
   -6.8203  -20.3854   39.1831 C   0  0  0  0  0  0  0  0  0  0  0  0
 14 13  4  0
 16 14  1  0
 14 15  4  0
 13 12  4  0
 12 11  4  0
 10 11  4  0
 10  9  1  0
 15 10  4  0
 34 35  2  0
 22 34  1  0
 34 36  1  0
 21 22  4  0
 22 23  4  0
 20 21  4  0
 19 20  1  0
 20 33  4  0
 18 19  1  0
 17 18  1  0
 17 16  1  0
  9  8  1  0
  8  7  1  6
  8 36  1  0
  7  6  1  0
  6  5  1  0
  5 37  1  0
  5  4  1  1
 37 39  1  0
 37 38  2  0
 39 40  1  0
 40 41  1  0
 41 42  1  6
 41 43  1  0
  4  3  1  0
  3  2  1  0
  2  1  1  0
 33 24  4  0
 24 25  1  0
 24 23  4  0
 25 26  1  0
 25 29  1  0
 26 27  1  0
 27 28  1  0
 29 31  2  0
 29 30  1  6
 29 32  2  0
M  CHG  1   6   1
M  END
$$$$
