
     RDKit          3D

 43 45  0  0  0  0  0  0  0  0999 V2000
   -1.8640  -23.6690   38.0160 C   0  0  0  0  0  0  0  0  0  0  0  0
   -1.6750  -23.0080   36.6610 C   0  0  0  0  0  0  0  0  0  0  0  0
   -2.7850  -22.0000   36.3480 C   0  0  0  0  0  0  0  0  0  0  0  0
   -2.6150  -21.2950   35.0050 C   0  0  0  0  0  0  0  0  0  0  0  0
   -3.7070  -20.2460   34.6530 C   0  0  2  0  0  0  0  0  0  0  0  0
   -3.4310  -19.5700   33.3670 N   0  0  0  0  0  0  0  0  0  0  0  0
   -4.5430  -18.8100   32.7130 C   0  0  0  0  0  0  0  0  0  0  0  0
   -4.0720  -17.3280   32.4670 C   0  0  2  0  0  0  0  0  0  0  0  0
   -5.1700  -16.3830   31.9360 C   0  0  0  0  0  0  0  0  0  0  0  0
   -4.5990  -15.1470   31.2790 C   0  0  0  0  0  0  0  0  0  0  0  0
   -4.2010  -14.0530   32.0550 C   0  0  0  0  0  0  0  0  0  0  0  0
   -3.6630  -12.9260   31.4410 C   0  0  0  0  0  0  0  0  0  0  0  0
   -3.4970  -12.8720   30.0570 C   0  0  0  0  0  0  0  0  0  0  0  0
   -3.8700  -13.9560   29.2640 C   0  0  0  0  0  0  0  0  0  0  0  0
   -4.4170  -15.0900   29.8870 C   0  0  0  0  0  0  0  0  0  0  0  0
   -3.6970  -13.9130   27.7610 C   0  0  0  0  0  0  0  0  0  0  0  0
   -2.4790  -14.6850   27.2020 C   0  0  0  0  0  0  0  0  0  0  0  0
   -1.1350  -14.2870   27.8610 C   0  0  0  0  0  0  0  0  0  0  0  0
    0.0310  -15.2680   27.6570 C   0  0  0  0  0  0  0  0  0  0  0  0
    0.3250  -16.1640   28.8370 C   0  0  0  0  0  0  0  0  0  0  0  0
   -0.6830  -16.3820   29.7780 C   0  0  0  0  0  0  0  0  0  0  0  0
   -0.4730  -17.2120   30.8800 C   0  0  0  0  0  0  0  0  0  0  0  0
    0.7840  -17.8110   31.0310 C   0  0  0  0  0  0  0  0  0  0  0  0
    1.8220  -17.6100   30.0980 C   0  0  0  0  0  0  0  0  0  0  0  0
    3.1160  -18.2450   30.2620 N   0  0  0  0  0  0  0  0  0  0  0  0
    3.8480  -18.2040   31.5680 C   0  0  0  0  0  0  0  0  0  0  0  0
    4.0820  -16.7870   32.1760 C   0  0  0  0  0  0  0  0  0  0  0  0
    4.4250  -15.6930   31.1620 C   0  0  0  0  0  0  0  0  0  0  0  0
    3.8090  -19.0550   28.9840 S   0  0  1  0  0  0  0  0  0  0  0  0
    4.8380  -17.9800   28.1800 C   0  0  0  0  0  0  0  0  0  0  0  0
    4.6130  -20.0710   29.5480 O   0  0  0  0  0  0  0  0  0  0  0  0
    2.7820  -19.3660   28.0570 O   0  0  0  0  0  0  0  0  0  0  0  0
    1.5710  -16.7770   28.9960 C   0  0  0  0  0  0  0  0  0  0  0  0
   -1.5800  -17.4070   31.8910 C   0  0  0  0  0  0  0  0  0  0  0  0
   -1.2940  -17.7150   33.0450 O   0  0  0  0  0  0  0  0  0  0  0  0
   -2.9160  -17.2250   31.5560 N   0  0  0  0  0  0  0  0  0  0  0  0
   -3.8950  -19.2400   35.8100 C   0  0  0  0  0  0  0  0  0  0  0  0
   -3.0500  -18.3800   36.0580 O   0  0  0  0  0  0  0  0  0  0  0  0
   -5.0580  -19.3490   36.5540 N   0  0  0  0  0  0  0  0  0  0  0  0
   -5.3460  -18.4490   37.6780 C   0  0  0  0  0  0  0  0  0  0  0  0
   -5.6070  -19.2270   38.9810 C   0  0  1  0  0  0  0  0  0  0  0  0
   -5.6740  -18.3180   40.2100 C   0  0  0  0  0  0  0  0  0  0  0  0
   -6.8780  -20.0680   38.8910 C   0  0  0  0  0  0  0  0  0  0  0  0
 14 13  2  0
 16 14  1  0
 14 15  1  0
 13 12  1  0
 12 11  2  0
 10 11  1  0
 10  9  1  0
 15 10  2  0
 34 35  2  0
 22 34  1  0
 34 36  1  0
 21 22  1  0
 22 23  2  0
 20 21  2  0
 19 20  1  0
 20 33  1  0
 18 19  1  0
 17 18  1  0
 17 16  1  0
  9  8  1  0
  8  7  1  6
  8 36  1  0
  7  6  1  0
  6  5  1  0
  5 37  1  0
  5  4  1  1
 37 39  1  0
 37 38  2  0
 39 40  1  0
 40 41  1  0
 41 42  1  1
 41 43  1  0
  4  3  1  0
  3  2  1  0
  2  1  1  0
 33 24  2  0
 24 25  1  0
 24 23  1  0
 25 26  1  0
 25 29  1  0
 26 27  1  0
 27 28  1  0
 29 31  2  0
 29 30  1  6
 29 32  2  0
M  CHG  1   6   1
M  END
$$$$
