
     RDKit          3D

  8  7  0  0  0  0  0  0  0  0999 V2000
    6.0262   -5.2204   -0.0483 C   0  0  0  0  0  0  0  0  0  0  0  0
    4.9212   -4.5209    0.4001 O   0  0  0  0  0  0  0  0  0  0  0  0
    4.3309   -3.5221   -0.4008 C   0  0  0  0  0  0  0  0  0  0  0  0
    3.2172   -2.8173    0.3151 C   0  0  0  0  0  0  0  0  0  0  0  0
    2.6400   -1.4942   -0.1822 C   0  0  2  0  0  0  0  0  0  0  0  0
    3.3454   -0.4054    0.4679 O   0  0  0  0  0  0  0  0  0  0  0  0
    1.1438   -1.3288   -0.1213 C   0  0  0  0  0  0  0  0  0  0  0  0
    0.7354    0.0337   -0.0380 O   0  0  0  0  0  0  0  0  0  0  0  0
  7  8  1  0
  5  7  1  0
  5  6  1  6
  4  5  1  0
  2  1  1  0
  3  2  1  0
  4  3  1  0
M  END
$$$$
