
     RDKit          3D

  8  7  0  0  0  0  0  0  0  0999 V2000
    3.0960   -2.2540    1.1518 C   0  0  0  0  0  0  0  0  0  0  0  0
    2.6224   -0.9604    1.3820 O   0  0  0  0  0  0  0  0  0  0  0  0
    1.2157   -0.7999    1.4902 C   0  0  0  0  0  0  0  0  0  0  0  0
    0.5040   -0.2585    0.2437 C   0  0  1  0  0  0  0  0  0  0  0  0
   -0.4337    0.8034    0.4163 O   0  0  0  0  0  0  0  0  0  0  0  0
    1.6294    0.2474   -0.6257 C   0  0  0  0  0  0  0  0  0  0  0  0
    2.9092   -0.0505   -0.1115 O   0  0  0  0  0  0  0  0  0  0  0  0
    4.0143   -0.0386   -0.8844 C   0  0  0  0  0  0  0  0  0  0  0  0
  2  1  1  0
  4  6  1  0
  6  7  1  0
  3  2  1  0
  3  4  1  0
  4  5  1  6
  7  8  1  0
M  END
$$$$
