
     RDKit          3D

 30 32  0  0  0  0  0  0  0  0999 V2000
  135.7074  147.1928  136.3650 C   0  0  0  0  0  0  0  0  0  0  0  0
  134.5871  148.0275  136.2133 O   0  0  0  0  0  0  0  0  0  0  0  0
  133.4959  147.3852  136.6997 C   0  0  0  0  0  0  0  0  0  0  0  0
  133.5034  146.3288  137.4014 O   0  0  0  0  0  0  0  0  0  0  0  0
  132.3293  147.7644  135.8978 C   0  0  0  0  0  0  0  0  0  0  0  0
  131.8919  146.8410  134.9656 C   0  0  0  0  0  0  0  0  0  0  0  0
  131.1475  147.2827  133.9809 C   0  0  0  0  0  0  0  0  0  0  0  0
  130.3435  146.1998  132.9303 Cl  0  0  0  0  0  0  0  0  0  0  0  0
  130.7956  148.6207  133.9138 C   0  0  0  0  0  0  0  0  0  0  0  0
  130.3307  149.1548  132.7687 O   0  0  0  0  0  0  0  0  0  0  0  0
  131.0272  149.4658  134.9927 C   0  0  0  0  0  0  0  0  0  0  0  0
  129.8366  150.6886  135.3316 S   0  0  1  0  0  0  0  0  0  0  0  0
  129.2626  151.0866  134.0606 O   0  0  0  0  0  0  0  0  0  0  0  0
  129.0023  150.1218  136.3441 O   0  0  0  0  0  0  0  0  0  0  0  0
  130.7824  151.9648  135.9558 N   0  0  0  0  0  0  0  0  0  0  0  0
  131.5503  151.7306  137.1543 C   0  0  0  0  0  0  0  0  0  0  0  0
  132.3569  152.6696  137.6456 C   0  0  0  0  0  0  0  0  0  0  0  0
  133.5622  152.3095  138.2556 C   0  0  0  0  0  0  0  0  0  0  0  0
  134.2067  153.1590  139.1589 C   0  0  0  0  0  0  0  0  0  0  0  0
  133.8165  154.4485  139.3352 C   0  0  0  0  0  0  0  0  0  0  0  0
  134.6599  155.3777  139.9091 C   0  0  0  0  0  0  0  0  0  0  0  0
  135.8929  155.0033  140.3062 C   0  0  0  0  0  0  0  0  0  0  0  0
  136.3033  153.6980  140.2113 C   0  0  0  0  0  0  0  0  0  0  0  0
  135.4285  152.7375  139.7127 C   0  0  0  0  0  0  0  0  0  0  0  0
  133.9455  150.9879  138.1993 C   0  0  0  0  0  0  0  0  0  0  0  0
  135.2182  150.6322  138.1153 F   0  0  0  0  0  0  0  0  0  0  0  0
  133.0256  150.0295  137.8387 C   0  0  0  0  0  0  0  0  0  0  0  0
  131.8051  150.4227  137.3938 C   0  0  0  0  0  0  0  0  0  0  0  0
  130.8031  149.5429  137.5332 F   0  0  0  0  0  0  0  0  0  0  0  0
  131.9149  149.0689  135.9473 C   0  0  0  0  0  0  0  0  0  0  0  0
  9  7  4  0
  7  6  4  0
  7  8  1  0
 20 21  4  0
 19 20  4  0
 21 22  4  0
 23 22  4  0
 24 23  4  0
 19 24  4  0
 16 17  4  0
 17 18  4  0
 30  5  4  0
 11 30  4  0
  5  3  1  0
  5  6  4  0
  3  4  2  0
  3  2  1  0
  2  1  1  0
 11  9  4  0
  9 10  1  0
 12 11  1  0
 16 28  4  0
 15 16  1  0
 28 27  4  0
 28 29  1  0
 27 25  4  0
 18 25  4  0
 25 26  1  0
 18 19  1  0
 12 15  1  1
 12 13  2  0
 12 14  2  0
M  END
$$$$
