
     RDKit          3D

 49 50  0  0  0  0  0  0  0  0999 V2000
   55.8570  113.1890   23.1970 C   0  0  0  0  0  0  0  0  0  0  0  0
   56.4190  113.6090   21.8380 C   0  0  1  0  0  0  0  0  0  0  0  0
   57.8160  113.2880   21.7820 O   0  0  0  0  0  0  0  0  0  0  0  0
   55.6920  112.8870   20.7040 C   0  0  2  0  0  0  0  0  0  0  0  0
   55.9370  113.5200   19.4140 N   0  0  0  0  0  0  0  0  0  0  0  0
   56.5280  112.8630   18.4330 C   0  0  0  0  0  0  0  0  0  0  0  0
   57.0960  111.7770   18.5920 O   0  0  0  0  0  0  0  0  0  0  0  0
   56.5100  113.5290   17.0690 C   0  0  2  0  0  0  0  0  0  0  0  0
   55.7210  112.6820   16.0730 C   0  0  0  0  0  0  0  0  0  0  0  0
   54.2620  112.4520   16.4230 C   0  0  0  0  0  0  0  0  0  0  0  0
   53.2810  113.3570   16.0340 C   0  0  0  0  0  0  0  0  0  0  0  0
   51.9440  113.1380   16.3350 C   0  0  0  0  0  0  0  0  0  0  0  0
   51.5740  112.0010   17.0180 C   0  0  0  0  0  0  0  0  0  0  0  0
   50.2480  111.7760   17.3170 O   0  0  0  0  0  0  0  0  0  0  0  0
   52.5280  111.0820   17.4060 C   0  0  0  0  0  0  0  0  0  0  0  0
   53.8610  111.3120   17.1070 C   0  0  0  0  0  0  0  0  0  0  0  0
   57.8950  113.6930   16.6540 N   0  0  0  0  0  0  0  0  0  0  0  0
   58.4310  114.8680   16.3500 C   0  0  0  0  0  0  0  0  0  0  0  0
   57.7540  115.8720   16.1090 O   0  0  0  0  0  0  0  0  0  0  0  0
   59.9530  114.8770   16.2640 C   0  0  2  0  0  0  0  0  0  0  0  0
   60.5710  114.6530   17.6440 C   0  0  0  0  0  0  0  0  0  0  0  0
   61.7690  113.7220   17.6010 C   0  0  0  0  0  0  0  0  0  0  0  0
   62.7560  113.9840   18.3200 O   0  0  0  0  0  0  0  0  0  0  0  0
   61.7200  112.7280   16.8420 O   0  0  0  0  0  0  0  0  0  0  0  0
   60.4140  116.1270   15.6980 N   0  0  0  0  0  0  0  0  0  0  0  0
   60.1930  116.3960   14.4200 C   0  0  0  0  0  0  0  0  0  0  0  0
   59.6130  115.6180   13.6630 O   0  0  0  0  0  0  0  0  0  0  0  0
   60.7320  117.7270   13.9280 C   0  0  1  0  0  0  0  0  0  0  0  0
   62.0640  117.9510   14.4860 N   0  0  0  0  0  0  0  0  0  0  0  0
   60.7630  117.7530   12.3990 C   0  0  0  0  0  0  0  0  0  0  0  0
   59.4240  118.1340   11.7990 C   0  0  0  0  0  0  0  0  0  0  0  0
   58.5480  118.6000   12.5600 O   0  0  0  0  0  0  0  0  0  0  0  0
   59.2480  117.9690   10.5710 O   0  0  0  0  0  0  0  0  0  0  0  0
   54.1930  112.8830   20.9240 C   0  0  0  0  0  0  0  0  0  0  0  0
   53.5800  113.9670   20.9990 O   0  0  0  0  0  0  0  0  0  0  0  0
   53.5540  111.7200   20.9790 N   0  0  0  0  0  0  0  0  0  0  0  0
   54.1410  110.3740   20.8420 C   0  0  0  0  0  0  0  0  0  0  0  0
   52.9540  109.5200   20.5510 C   0  0  0  0  0  0  0  0  0  0  0  0
   51.7460  110.2050   21.1290 C   0  0  0  0  0  0  0  0  0  0  0  0
   52.1150  111.6880   21.2670 C   0  0  1  0  0  0  0  0  0  0  0  0
   51.8430  112.1990   22.6740 C   0  0  0  0  0  0  0  0  0  0  0  0
   52.5490  111.8510   23.6230 O   0  0  0  0  0  0  0  0  0  0  0  0
   50.8160  113.0360   22.7990 N   0  0  0  0  0  0  0  0  0  0  0  0
   50.4840  113.6530   24.0820 C   0  0  1  0  0  0  0  0  0  0  0  0
   50.1420  115.1340   23.8930 C   0  0  0  0  0  0  0  0  0  0  0  0
   51.1640  115.8120   23.1810 O   0  0  0  0  0  0  0  0  0  0  0  0
   49.3270  112.9320   24.7590 C   0  0  0  0  0  0  0  0  0  0  0  0
   49.4940  112.3310   25.8150 O   0  0  0  0  0  0  0  0  0  0  0  0
   48.2060  112.9390   24.2610 O   0  0  0  0  0  0  0  0  0  0  0  0
 28 29  1  1
 28 26  1  0
 28 30  1  0
 26 27  2  0
 26 25  1  0
 30 31  1  0
 31 32  2  0
 31 33  1  0
 25 20  1  0
 20 18  1  0
 20 21  1  1
 18 19  2  0
 18 17  1  0
 21 22  1  0
 22 24  1  0
 22 23  2  0
 17  8  1  0
  8  6  1  0
  8  9  1  6
  6  7  2  0
  6  5  1  0
  9 10  1  0
 10 11  2  0
 10 16  1  0
 11 12  1  0
 16 15  2  0
 12 13  2  0
 15 13  1  0
 13 14  1  0
  4  5  1  6
  4 34  1  0
  4  2  1  0
 34 35  2  0
 34 36  1  0
  2  3  1  0
  2  1  1  1
 36 40  1  0
 36 37  1  0
 40 41  1  1
 40 39  1  0
 41 42  2  0
 41 43  1  0
 39 38  1  0
 38 37  1  0
 43 44  1  0
 44 47  1  0
 44 45  1  6
 47 49  1  0
 47 48  2  0
 45 46  1  0
M  CHG  1  29   1
M  END
$$$$
