
     RDKit          3D

 27 32  0  0  0  0  0  0  0  0999 V2000
    1.7100   58.1670  114.3920 C   0  0  0  0  0  0  0  0  0  0  0  0
    2.6050   59.3420  114.8880 C   0  0  2  0  0  0  0  0  0  0  0  0
    1.6940   60.2410  115.7990 C   0  0  0  0  0  0  0  0  0  0  0  0
    3.3350   60.0480  113.7030 C   0  0  0  0  0  0  0  0  0  0  0  0
    2.7960   60.9020  112.7040 N   0  0  0  0  0  0  0  0  0  0  0  0
    3.8380   61.3270  111.8220 C   0  0  0  0  0  0  0  0  0  0  0  0
    3.8620   62.1650  110.6870 C   0  0  0  0  0  0  0  0  0  0  0  0
    5.0560   62.3700  110.0500 C   0  0  0  0  0  0  0  0  0  0  0  0
    5.1590   63.4970  108.5060 Br  0  0  0  0  0  0  0  0  0  0  0  0
    6.2400   61.7830  110.4850 C   0  0  0  0  0  0  0  0  0  0  0  0
    7.6860   62.1260  109.5960 Cl  0  0  0  0  0  0  0  0  0  0  0  0
    6.2470   60.9690  111.5830 C   0  0  0  0  0  0  0  0  0  0  0  0
    5.0510   60.7190  112.2840 C   0  0  0  0  0  0  0  0  0  0  0  0
    4.6710   59.9500  113.4350 C   0  0  0  0  0  0  0  0  0  0  0  0
    5.5710   59.1460  114.2720 C   0  0  0  0  0  0  0  0  0  0  0  0
    5.1600   59.2720  115.7220 C   0  0  1  0  0  0  0  0  0  0  0  0
    5.3640   60.6630  116.4540 C   0  0  0  0  0  0  0  0  0  0  0  0
    4.5840   60.6160  117.7330 N   0  0  2  0  0  4  0  0  0  0  0  0
    5.3080   61.1730  118.8970 C   0  0  0  0  0  0  0  0  0  0  0  0
    4.6700   60.4690  120.1220 C   0  0  0  0  0  0  0  0  0  0  0  0
    3.8970   59.2520  119.5870 C   0  0  0  0  0  0  0  0  0  0  0  0
    4.2960   59.1920  118.1280 C   0  0  1  0  0  0  0  0  0  0  0  0
    3.2430   58.6070  117.2460 C   0  0  0  0  0  0  0  0  0  0  0  0
    3.7190   58.6670  115.8000 C   0  0  1  0  0  0  0  0  0  0  0  0
    5.6120   58.3920  117.9470 C   0  0  0  0  0  0  0  0  0  0  0  0
    6.2270   57.8120  118.7640 O   0  0  0  0  0  0  0  0  0  0  0  0
    6.0170   58.4390  116.5720 N   0  0  0  0  0  0  0  0  0  0  0  0
  2  1  1  6
  2  3  1  0
 24  2  1  0
  2  4  1  0
 24 23  1  1
 16 24  1  0
 23 22  1  0
 16 15  1  6
 16 27  1  0
 16 17  1  0
 14 15  1  0
 27 25  1  0
 25 22  1  0
 25 26  2  0
 22 21  1  1
 22 18  1  0
 21 20  1  0
 19 20  1  0
 18 19  1  1
  7  8  2  0
  8 10  1  0
  8  9  1  0
  6  7  1  0
 13  6  2  0
  6  5  1  0
 13 12  1  0
 13 14  1  0
 12 10  2  0
 10 11  1  0
 14  4  2  0
  4  5  1  0
 17 18  1  0
M  CHG  1  18   1
M  END
$$$$
