
     RDKit          3D

 33 35  0  0  0  0  0  0  0  0999 V2000
  111.1366  -18.0990  -12.2395 N   0  0  0  0  0  0  0  0  0  0  0  0
  111.2309  -17.5227  -10.8786 C   0  0  0  0  0  0  0  0  0  0  0  0
  111.0036  -16.0216  -10.9728 C   0  0  2  0  0  0  0  0  0  0  0  0
  111.1636  -15.5081   -9.6571 O   0  0  0  0  0  0  0  0  0  0  0  0
  110.1872  -16.0667   -8.7812 C   0  0  1  0  0  0  0  0  0  0  0  0
  110.4014  -15.6082   -7.4263 O   0  0  0  0  0  0  0  0  0  0  0  0
  111.0815  -16.5085   -6.5121 C   0  0  2  0  0  0  0  0  0  0  0  0
  110.7190  -15.9430   -5.1418 C   0  0  1  0  0  0  0  0  0  0  0  0
  110.9808  -16.9988   -4.1292 N   0  0  0  0  0  0  0  0  0  0  0  0
  111.4548  -14.6981   -4.7819 C   0  0  0  0  0  0  0  0  0  0  0  0
  112.9307  -14.9917   -4.8761 C   0  0  1  0  0  0  0  0  0  0  0  0
  113.2945  -16.0456   -3.9462 N   0  0  0  0  0  0  0  0  0  0  0  0
  113.3306  -15.3589   -6.2839 C   0  0  2  0  0  0  0  0  0  0  0  0
  113.0573  -14.3120   -7.1589 O   0  0  0  0  0  0  0  0  0  0  0  0
  111.7201  -13.8884   -7.2834 C   0  0  2  0  0  0  0  0  0  0  0  0
  111.2912  -13.7923   -8.6289 O   0  0  0  0  0  0  0  0  0  0  0  0
  111.8356  -12.6449   -9.2655 C   0  0  1  0  0  0  0  0  0  0  0  0
  110.9972  -12.3570  -10.4956 C   0  0  0  0  0  0  0  0  0  0  0  0
  111.8619  -12.5371  -11.5701 O   0  0  0  0  0  0  0  0  0  0  0  0
  111.8357  -11.3022   -8.5045 C   0  0  1  0  0  0  0  0  0  0  0  0
  111.2381  -10.3235   -9.3160 O   0  0  0  0  0  0  0  0  0  0  0  0
  111.1491  -11.3343   -7.1799 C   0  0  2  0  0  0  0  0  0  0  0  0
  111.4092  -10.1493   -6.4721 N   0  0  0  0  0  0  0  0  0  0  0  0
  111.5762  -12.6212   -6.4419 C   0  0  1  0  0  0  0  0  0  0  0  0
  110.6684  -12.8361   -5.4227 O   0  0  0  0  0  0  0  0  0  0  0  0
  112.5773  -16.5680   -6.6917 C   0  0  2  0  0  0  0  0  0  0  0  0
  112.8817  -16.8111   -8.0886 O   0  0  0  0  0  0  0  0  0  0  0  0
  108.8370  -15.6427   -9.2037 C   0  0  1  0  0  0  0  0  0  0  0  0
  108.7788  -14.2451   -9.3099 O   0  0  0  0  0  0  0  0  0  0  0  0
  108.5590  -16.2288  -10.5707 C   0  0  1  0  0  0  0  0  0  0  0  0
  107.2566  -15.7815  -10.9910 O   0  0  0  0  0  0  0  0  0  0  0  0
  109.6357  -15.6957  -11.5670 C   0  0  2  0  0  0  0  0  0  0  0  0
  109.5013  -16.3520  -12.8253 O   0  0  0  0  0  0  0  0  0  0  0  0
  5 28  1  0
  5  4  1  0
  5  6  1  6
 28 30  1  0
 28 29  1  1
 30 32  1  0
 30 31  1  6
  3 32  1  0
 32 33  1  6
  3  2  1  6
  4  3  1  0
  2  1  1  0
 13 11  1  0
 11 10  1  0
 11 12  1  1
 13 26  1  0
 13 14  1  6
 26  7  1  0
 26 27  1  1
  7  8  1  0
  7  6  1  6
 10  8  1  0
  8  9  1  1
 15 24  1  0
 15 14  1  1
 15 16  1  0
 24 22  1  0
 24 25  1  1
 22 20  1  0
 22 23  1  1
 20 17  1  0
 20 21  1  6
 17 18  1  1
 17 16  1  0
 18 19  1  0
M  CHG  4   1   1   9   1  12   1  23   1
M  END
$$$$
