
     RDKit          3D

 33 35  0  0  0  0  0  0  0  0999 V2000
  110.9760  -20.8510  -10.1750 N   0  0  0  0  0  0  0  0  0  0  0  0
  109.7960  -21.4700   -9.5890 C   0  0  0  0  0  0  0  0  0  0  0  0
  109.3440  -20.6380   -8.3930 C   0  0  1  0  0  0  0  0  0  0  0  0
  109.1180  -19.3280   -8.8520 O   0  0  0  0  0  0  0  0  0  0  0  0
  108.6730  -18.4700   -7.8360 C   0  0  2  0  0  0  0  0  0  0  0  0
  109.5510  -18.4650   -6.7100 O   0  0  0  0  0  0  0  0  0  0  0  0
  110.8240  -17.8460   -6.8990 C   0  0  2  0  0  0  0  0  0  0  0  0
  111.5110  -18.0160   -5.5370 C   0  0  1  0  0  0  0  0  0  0  0  0
  111.7470  -19.4450   -5.3220 N   0  0  0  0  0  0  0  0  0  0  0  0
  112.8430  -17.2770   -5.4680 C   0  0  0  0  0  0  0  0  0  0  0  0
  112.5990  -15.8100   -5.7750 C   0  0  1  0  0  0  0  0  0  0  0  0
  113.8400  -15.0670   -5.6100 N   0  0  0  0  0  0  0  0  0  0  0  0
  112.1040  -15.6660   -7.2080 C   0  0  2  0  0  0  0  0  0  0  0  0
  111.9040  -14.2970   -7.4880 O   0  0  0  0  0  0  0  0  0  0  0  0
  112.8110  -13.7240   -8.4160 C   0  0  1  0  0  0  0  0  0  0  0  0
  112.3420  -13.8090   -9.7580 O   0  0  0  0  0  0  0  0  0  0  0  0
  111.1210  -13.1180   -9.9350 C   0  0  2  0  0  0  0  0  0  0  0  0
  110.8030  -13.1430  -11.4220 C   0  0  0  0  0  0  0  0  0  0  0  0
  110.7860  -14.4810  -11.8020 O   0  0  0  0  0  0  0  0  0  0  0  0
  111.2120  -11.6530   -9.5690 C   0  0  1  0  0  0  0  0  0  0  0  0
  109.9130  -11.0980   -9.7100 O   0  0  0  0  0  0  0  0  0  0  0  0
  111.6610  -11.5000   -8.1330 C   0  0  2  0  0  0  0  0  0  0  0  0
  111.8410  -10.0810   -7.8770 N   0  0  0  0  0  0  0  0  0  0  0  0
  112.9750  -12.2640   -8.0080 C   0  0  1  0  0  0  0  0  0  0  0  0
  113.3340  -12.2190   -6.6510 O   0  0  0  0  0  0  0  0  0  0  0  0
  110.7540  -16.3630   -7.2880 C   0  0  1  0  0  0  0  0  0  0  0  0
  110.3630  -16.2700   -8.6430 O   0  0  0  0  0  0  0  0  0  0  0  0
  107.3110  -18.9740   -7.3680 C   0  0  2  0  0  0  0  0  0  0  0  0
  106.8170  -18.1010   -6.3680 O   0  0  0  0  0  0  0  0  0  0  0  0
  107.4800  -20.3570   -6.7640 C   0  0  1  0  0  0  0  0  0  0  0  0
  106.1940  -20.8240   -6.3760 O   0  0  0  0  0  0  0  0  0  0  0  0
  108.0820  -21.2810   -7.8150 C   0  0  2  0  0  0  0  0  0  0  0  0
  108.4250  -22.5370   -7.2480 O   0  0  0  0  0  0  0  0  0  0  0  0
  5 28  1  0
  5  4  1  0
  5  6  1  1
 28 30  1  0
 28 29  1  1
 30 32  1  0
 30 31  1  6
  3 32  1  0
 32 33  1  1
  3  2  1  6
  4  3  1  0
  2  1  1  0
 13 11  1  0
 11 10  1  0
 11 12  1  6
 13 26  1  0
 13 14  1  1
 26  7  1  0
 26 27  1  6
  7  8  1  0
  7  6  1  1
 10  8  1  0
  8  9  1  6
 15 24  1  0
 15 14  1  1
 15 16  1  0
 24 22  1  0
 24 25  1  1
 22 20  1  0
 22 23  1  6
 20 17  1  0
 20 21  1  1
 17 18  1  6
 17 16  1  0
 18 19  1  0
M  CHG  4   1   1   9   1  12   1  23   1
M  END
$$$$
