
     RDKit          3D

 65 66  0  0  0  0  0  0  0  0999 V2000
   68.5144   -1.5065   27.6258 C   0  0  0  0  0  0  0  0  0  0  0  0
   68.8742   -0.9926   26.2630 C   0  0  1  0  0  0  0  0  0  0  0  0
   68.7837    0.5191   26.1811 C   0  0  0  0  0  0  0  0  0  0  0  0
   70.2711   -1.5797   25.8747 C   0  0  0  0  0  0  0  0  0  0  0  0
   70.9632   -1.0812   24.5877 C   0  0  2  0  0  0  0  0  0  0  0  0
   71.2545    0.3241   24.6156 N   0  0  0  0  0  0  0  0  0  0  0  0
   71.9312    0.9275   25.5468 C   0  0  0  0  0  0  0  0  0  0  0  0
   73.1963    0.9354   25.4981 O   0  0  0  0  0  0  0  0  0  0  0  0
   71.1517    1.1567   26.8659 C   0  0  1  0  0  0  0  0  0  0  0  0
   70.4670   -0.1293   27.2669 C   0  0  0  0  0  0  0  0  0  0  0  0
   69.3372    0.0055   28.2648 C   0  0  0  0  0  0  0  0  0  0  0  0
   68.0427    0.0073   27.8718 C   0  0  0  0  0  0  0  0  0  0  0  0
   66.9459    0.0092   28.7556 C   0  0  0  0  0  0  0  0  0  0  0  0
   67.2188   -0.0097   30.1009 C   0  0  0  0  0  0  0  0  0  0  0  0
   68.5176    0.0123   30.5485 C   0  0  0  0  0  0  0  0  0  0  0  0
   69.5717    0.0121   29.6048 C   0  0  0  0  0  0  0  0  0  0  0  0
   71.9993    1.6814   27.9900 N   0  0  0  0  0  0  0  0  0  0  0  0
   72.5426    0.9581   28.9252 C   0  0  0  0  0  0  0  0  0  0  0  0
   72.9156   -0.1431   28.7155 O   0  0  0  0  0  0  0  0  0  0  0  0
   73.2189    1.7532   30.0470 C   0  0  2  0  0  0  0  0  0  0  0  0
   74.0658    0.8317   30.9456 C   0  0  0  0  0  0  0  0  0  0  0  0
   73.7463    1.2067   32.3586 C   0  0  0  0  0  0  0  0  0  0  0  0
   72.3704    1.8381   32.3758 C   0  0  0  0  0  0  0  0  0  0  0  0
   72.2432    2.3011   30.9595 N   0  0  0  0  0  0  0  0  0  0  0  0
   71.5130    3.3434   30.6170 C   0  0  0  0  0  0  0  0  0  0  0  0
   71.9368    4.1658   29.7648 O   0  0  0  0  0  0  0  0  0  0  0  0
   70.3110    3.6648   31.4649 C   0  0  2  0  0  0  0  0  0  0  0  0
   69.1765    2.7467   31.2929 C   0  0  0  0  0  0  0  0  0  0  0  0
   69.9359    5.0795   31.1856 N   0  0  0  0  0  0  0  0  0  0  0  0
   70.2561    6.0876   31.9835 C   0  0  0  0  0  0  0  0  0  0  0  0
   71.0136    6.0107   32.9984 O   0  0  0  0  0  0  0  0  0  0  0  0
   69.3479    7.2658   31.7845 C   0  0  1  0  0  0  0  0  0  0  0  0
   69.5400    8.2741   32.8624 N   0  0  0  0  0  0  0  0  0  0  0  0
   69.1525    8.0362   34.0875 C   0  0  0  0  0  0  0  0  0  0  0  0
   68.1353    7.4155   34.4329 O   0  0  0  0  0  0  0  0  0  0  0  0
   69.8324    8.9604   35.0910 C   0  0  1  0  0  0  0  0  0  0  0  0
   68.8092    9.5993   35.9748 N   0  0  0  0  0  0  0  0  0  0  0  0
   70.8914    8.1302   35.8938 C   0  0  2  0  0  0  0  0  0  0  0  0
   70.5109    6.6221   35.9102 C   0  0  0  0  0  0  0  0  0  0  0  0
   70.8380    8.5292   37.2484 O   0  0  0  0  0  0  0  0  0  0  0  0
   69.5235    7.9333   30.4073 C   0  0  1  0  0  0  0  0  0  0  0  0
   70.3607    9.2073   30.5483 C   0  0  0  0  0  0  0  0  0  0  0  0
   70.2077    7.0421   29.5333 O   0  0  0  0  0  0  0  0  0  0  0  0
   70.0418   -1.3436   23.3471 C   0  0  0  0  0  0  0  0  0  0  0  0
   69.9002   -0.4944   22.4754 O   0  0  0  0  0  0  0  0  0  0  0  0
   69.4585   -2.5705   23.2783 N   0  0  0  0  0  0  0  0  0  0  0  0
   70.1518   -3.7064   22.6652 C   0  0  1  0  0  0  0  0  0  0  0  0
   69.7356   -5.0302   23.2985 C   0  0  0  0  0  0  0  0  0  0  0  0
   69.7875   -4.9584   24.6859 O   0  0  0  0  0  0  0  0  0  0  0  0
   69.8488   -3.7005   21.1601 C   0  0  0  0  0  0  0  0  0  0  0  0
   68.7657   -4.2379   20.7407 O   0  0  0  0  0  0  0  0  0  0  0  0
   70.6220   -2.9532   20.4376 N   0  0  0  0  0  0  0  0  0  0  0  0
   70.3316   -2.4682   19.0878 C   0  0  0  0  0  0  0  0  0  0  0  0
   69.3936   -3.3778   18.3897 C   0  0  0  0  0  0  0  0  0  0  0  0
   69.5471   -4.6023   18.4093 O   0  0  0  0  0  0  0  0  0  0  0  0
   68.2803   -2.7946   17.9574 N   0  0  0  0  0  0  0  0  0  0  0  0
   67.1953   -3.5275   17.2091 C   0  0  1  0  0  0  0  0  0  0  0  0
   66.2854   -2.5238   16.5508 C   0  0  0  0  0  0  0  0  0  0  0  0
   66.6009   -1.0988   16.8180 C   0  0  0  0  0  0  0  0  0  0  0  0
   65.8850   -0.5542   18.0175 C   0  0  0  0  0  0  0  0  0  0  0  0
   65.9834    0.9639   18.1136 C   0  0  0  0  0  0  0  0  0  0  0  0
   66.0206    1.4205   19.5317 N   0  0  0  0  0  0  0  0  0  0  0  0
   67.8351   -4.4808   16.2518 C   0  0  0  0  0  0  0  0  0  0  0  0
   68.4439   -5.4879   16.7853 O   0  0  0  0  0  0  0  0  0  0  0  0
   67.8500   -4.2211   15.0142 O   0  0  0  0  0  0  0  0  0  0  0  0
 36 37  1  1
 36 34  1  0
 36 38  1  0
 34 35  2  0
 34 33  1  0
 38 40  1  0
 38 39  1  6
 32 33  1  1
 32 30  1  0
 32 41  1  0
 30 31  2  0
 30 29  1  0
 41 43  1  0
 41 42  1  1
 29 27  1  0
 27 25  1  0
 27 28  1  6
 25 26  2  0
 25 24  1  0
 24 20  1  0
 24 23  1  0
 20 18  1  6
 20 21  1  0
 18 19  2  0
 18 17  1  0
 21 22  1  0
 22 23  1  0
 17  9  1  0
  9  7  1  0
  9 10  1  6
  7  8  2  0
  7  6  1  0
 10 11  1  0
 11 12  4  0
 11 16  4  0
 12 13  4  0
 16 15  4  0
 13 14  4  0
 15 14  4  0
  6  5  1  0
  5 44  1  0
  5  4  1  1
 44 45  2  0
 44 46  1  0
  4  2  1  0
  2  1  1  1
  2  3  1  0
 46 47  1  0
 47 50  1  0
 47 48  1  1
 50 51  2  0
 50 52  1  0
 48 49  1  0
 52 53  1  0
 53 54  1  0
 54 55  2  0
 54 56  1  0
 56 57  1  0
 57 63  1  0
 57 58  1  6
 63 65  1  0
 63 64  2  0
 58 59  1  0
 59 60  1  0
 60 61  1  0
 61 62  1  0
M  CHG  2  37   1  62   1
M  END
$$$$
