
     RDKit          3D

 30 33  0  0  0  0  0  0  0  0999 V2000
  -36.7571  -46.3312   24.2125 H   0  0  0  0  0  0  0  0  0  0  0  0
  -37.2184  -47.2340   23.5171 N   0  0  0  0  0  0  0  0  0  0  0  0
  -38.4281  -46.7806   23.0158 C   0  0  0  0  0  0  0  0  0  0  0  0
  -39.1323  -47.4849   22.1894 N   0  0  0  0  0  0  0  0  0  0  0  0
  -40.2270  -46.9698   21.3678 C   0  0  2  0  0  0  0  0  0  0  0  0
  -41.2196  -48.0302   21.1307 C   0  0  0  0  0  0  0  0  0  0  0  0
  -39.6707  -46.5168   19.9831 C   0  0  0  0  0  0  0  0  0  0  0  0
  -38.3145  -46.3329   19.8700 C   0  0  0  0  0  0  0  0  0  0  0  0
  -37.7726  -46.0195   18.6279 C   0  0  0  0  0  0  0  0  0  0  0  0
  -36.4093  -45.6809   18.5955 N   0  0  0  0  0  0  0  0  0  0  0  0
  -35.7460  -45.2083   17.4910 C   0  0  0  0  0  0  0  0  0  0  0  0
  -36.2830  -45.0464   16.3399 O   0  0  0  0  0  0  0  0  0  0  0  0
  -34.3084  -45.4530   17.5060 C   0  0  0  0  0  0  0  0  0  0  0  0
  -33.4865  -44.3389   17.3378 C   0  0  0  0  0  0  0  0  0  0  0  0
  -32.1059  -44.5899   17.3194 C   0  0  0  0  0  0  0  0  0  0  0  0
  -31.6478  -45.9003   17.4584 C   0  0  0  0  0  0  0  0  0  0  0  0
  -30.2373  -46.1570   17.4060 C   0  0  0  0  0  0  0  0  0  0  0  0
  -29.0669  -45.9494   17.4746 N   0  0  0  0  0  0  0  0  0  0  0  0
  -32.5464  -46.9273   17.6192 C   0  0  0  0  0  0  0  0  0  0  0  0
  -33.8754  -46.7336   17.7169 N   0  0  0  0  0  0  0  0  0  0  0  0
  -38.5781  -45.8577   17.5360 C   0  0  0  0  0  0  0  0  0  0  0  0
  -39.9478  -45.9595   17.6830 C   0  0  0  0  0  0  0  0  0  0  0  0
  -40.5161  -46.2150   18.9223 C   0  0  0  0  0  0  0  0  0  0  0  0
  -41.8650  -46.2308   19.0903 F   0  0  0  0  0  0  0  0  0  0  0  0
  -40.9578  -45.8159   22.1592 C   0  0  0  0  0  0  0  0  0  0  0  0
  -40.0016  -44.9346   22.7367 N   0  0  0  0  0  0  0  0  0  0  0  0
  -40.0900  -43.5497   22.9092 C   0  0  0  0  0  0  0  0  0  0  0  0
  -38.8203  -43.1225   23.1269 C   0  0  0  0  0  0  0  0  0  0  0  0
  -37.9638  -44.2503   23.2689 C   0  0  0  0  0  0  0  0  0  0  0  0
  -38.7654  -45.3553   23.1094 C   0  0  0  0  0  0  0  0  0  0  0  0
 16 17  1  0
 17 18  3  0
 15 16  4  0
 19 16  4  0
 14 15  4  0
 13 14  4  0
 11 13  1  0
 13 20  4  0
 20 19  4  0
  9 21  4  0
  9  8  4  0
 10  9  1  0
 22 23  4  0
  7 23  4  0
 23 24  1  0
 21 22  4  0
  7  5  1  0
  5  6  1  6
  5 25  1  0
  5  4  1  0
  3 30  1  0
 30 29  4  0
 26 30  4  0
 27 28  4  0
 26 27  4  0
  8  7  4  0
  4  3  1  0
  3  2  2  0
 29 28  4  0
 25 26  1  0
 11 10  1  0
 11 12  2  0
  2  1  1  0
M  END
$$$$
