
     RDKit          3D

 31 36  0  0  0  0  0  0  0  0999 V2000
   30.5324  103.2957    5.9903 N   0  0  0  0  0  0  0  0  0  0  0  0
   30.7565  103.6258    4.7262 C   0  0  0  0  0  0  0  0  0  0  0  0
   30.1938  104.7271    4.2112 N   0  0  0  0  0  0  0  0  0  0  0  0
   30.5784  105.1782    2.9191 C   0  0  0  0  0  0  0  0  0  0  0  0
   31.4914  104.4168    2.1884 C   0  0  0  0  0  0  0  0  0  0  0  0
   31.5869  104.5361    0.8136 C   0  0  0  0  0  0  0  0  0  0  0  0
   32.5405  103.7816    0.1175 C   0  0  0  0  0  0  0  0  0  0  0  0
   33.1919  104.4016   -0.9528 C   0  0  0  0  0  0  0  0  0  0  0  0
   32.7215  104.2020   -2.2697 C   0  0  0  0  0  0  0  0  0  0  0  0
   32.8076  102.5598   -2.9056 Cl  0  0  0  0  0  0  0  0  0  0  0  0
   32.4074  105.2786   -3.0503 C   0  0  0  0  0  0  0  0  0  0  0  0
   32.8106  106.5579   -2.6625 C   0  0  0  0  0  0  0  0  0  0  0  0
   33.4471  106.7229   -1.4804 C   0  0  0  0  0  0  0  0  0  0  0  0
   33.9207  105.6469   -0.6892 C   0  0  0  0  0  0  0  0  0  0  0  0
   35.2472  105.6819   -0.2601 C   0  0  0  0  0  0  0  0  0  0  0  0
   36.1467  106.6240   -0.6895 C   0  0  0  0  0  0  0  0  0  0  0  0
   37.4627  106.6212   -0.2303 C   0  0  0  0  0  0  0  0  0  0  0  0
   37.9177  105.5454    0.5892 C   0  0  0  0  0  0  0  0  0  0  0  0
   37.0053  104.5721    0.9437 N   0  0  0  0  0  0  0  0  0  0  0  0
   35.6969  104.6116    0.5219 C   0  0  0  0  0  0  0  0  0  0  0  0
   33.1113  102.6545    0.7699 C   0  0  0  0  0  0  0  0  0  0  0  0
   33.3272  101.5076    0.1434 N   0  0  0  0  0  0  0  0  0  0  0  0
   33.5884  100.0285    0.6572 C   0  0  0  0  0  0  0  0  0  0  0  0
   34.5830   99.4820   -0.3443 C   0  0  1  0  0  0  0  0  0  0  0  0
   33.9889   98.9490   -1.6588 C   0  0  1  0  0  0  0  0  0  0  0  0
   32.5086   98.8534   -1.8057 N   0  0  0  0  0  0  0  0  0  0  0  0
   34.6220  100.3545   -1.6225 C   0  0  1  0  0  0  0  0  0  0  0  0
   33.7247  101.5550   -1.3004 C   0  0  0  0  0  0  0  0  0  0  0  0
   33.0193  102.6631    2.1017 N   0  0  0  0  0  0  0  0  0  0  0  0
   32.1322  103.3797    2.8081 C   0  0  0  0  0  0  0  0  0  0  0  0
   31.7080  102.9264    3.9971 N   0  0  0  0  0  0  0  0  0  0  0  0
 27 28  1  1
 28 22  1  0
 27 25  1  0
 27 24  1  0
 25 26  1  6
 25 24  1  0
 24 23  1  1
 23 22  1  0
 22 21  1  0
 21 29  4  0
 21  7  4  0
 29 30  4  0
 30 31  4  0
 30  5  4  0
 31  2  4  0
  2  1  1  0
  2  3  4  0
  3  4  4  0
  4  5  4  0
  5  6  4  0
  6  7  4  0
  7  8  1  0
  8  9  4  0
  8 14  4  0
  9 10  1  0
  9 11  4  0
 11 12  4  0
 12 13  4  0
 13 14  4  0
 14 15  1  0
 15 16  4  0
 15 20  4  0
 16 17  4  0
 17 18  4  0
 18 19  4  0
 19 20  4  0
M  CHG  1  26   1
M  END
$$$$
