
     RDKit          3D

123123  0  0  0  0  0  0  0  0999 V2000
  103.2018  -12.2960   40.0341 H   0  0  0  0  0  0  0  0  0  0  0  0
  103.6784  -12.2902   38.8571 N   0  0  0  0  0  0  0  0  0  0  0  0
  102.5955  -12.2550   38.0835 C   0  0  0  0  0  0  0  0  0  0  0  0
  101.4054  -11.7697   38.5580 N   0  0  0  0  0  0  0  0  0  0  0  0
  102.7153  -12.5778   36.7897 N   0  0  0  0  0  0  0  0  0  0  0  0
  101.7421  -12.2188   35.7674 C   0  0  0  0  0  0  0  0  0  0  0  0
  102.1966  -10.9214   35.0874 C   0  0  0  0  0  0  0  0  0  0  0  0
  103.1610  -11.2189   33.9183 C   0  0  0  0  0  0  0  0  0  0  0  0
  102.7436  -12.3789   33.0366 C   0  0  1  0  0  0  0  0  0  0  0  0
  102.4644  -13.5629   33.8318 N   0  0  0  0  0  0  0  0  0  0  0  0
  101.2573  -13.9440   34.1559 C   0  0  0  0  0  0  0  0  0  0  0  0
  100.3321  -13.1387   34.1807 O   0  0  0  0  0  0  0  0  0  0  0  0
  100.9522  -15.4293   34.1505 C   0  0  1  0  0  0  0  0  0  0  0  0
   99.9912  -15.7864   35.3032 C   0  0  0  0  0  0  0  0  0  0  0  0
  100.3959  -15.8610   32.8858 N   0  0  0  0  0  0  0  0  0  0  0  0
  101.4526  -11.9972   32.2500 C   0  0  0  0  0  0  0  0  0  0  0  0
  101.1476  -10.8095   32.1536 O   0  0  0  0  0  0  0  0  0  0  0  0
  100.6362  -13.0015   32.0126 N   0  0  0  0  0  0  0  0  0  0  0  0
   99.1947  -12.8451   32.2338 C   0  0  2  0  0  0  0  0  0  0  0  0
   99.0128  -11.5852   33.0240 C   0  0  0  0  0  0  0  0  0  0  0  0
   99.9755  -10.9670   33.5224 O   0  0  0  0  0  0  0  0  0  0  0  0
   97.7210  -11.3497   33.4252 N   0  0  0  0  0  0  0  0  0  0  0  0
   97.1762  -12.0059   34.5376 C   0  0  1  0  0  0  0  0  0  0  0  0
   96.7182  -10.9526   35.6134 C   0  0  0  0  0  0  0  0  0  0  0  0
   97.2641   -9.5261   35.3310 C   0  0  0  0  0  0  0  0  0  0  0  0
   98.2332   -9.5155   34.1584 C   0  0  0  0  0  0  0  0  0  0  0  0
   99.3644   -8.5717   34.4318 C   0  0  0  0  0  0  0  0  0  0  0  0
  100.4546   -8.5023   33.4441 N   0  0  0  0  0  0  0  0  0  0  0  0
   96.0059  -12.8847   34.1633 C   0  0  0  0  0  0  0  0  0  0  0  0
   95.9896  -13.4493   33.0371 O   0  0  0  0  0  0  0  0  0  0  0  0
   94.9262  -12.8606   34.9376 N   0  0  0  0  0  0  0  0  0  0  0  0
   94.9558  -13.2392   36.3285 C   0  0  2  0  0  0  0  0  0  0  0  0
   93.6158  -12.9293   36.9410 C   0  0  0  0  0  0  0  0  0  0  0  0
   92.8374  -11.8172   36.3269 C   0  0  0  0  0  0  0  0  0  0  0  0
   91.3293  -12.0855   36.3744 C   0  0  0  0  0  0  0  0  0  0  0  0
   90.5546  -11.0152   36.3147 N   0  0  0  0  0  0  0  0  0  0  0  0
   90.9202  -13.2380   36.4451 O   0  0  0  0  0  0  0  0  0  0  0  0
   96.1609  -12.6353   37.0893 C   0  0  0  0  0  0  0  0  0  0  0  0
   96.4840  -11.4714   36.8008 O   0  0  0  0  0  0  0  0  0  0  0  0
   96.5301  -13.2006   38.2383 N   0  0  0  0  0  0  0  0  0  0  0  0
   97.4670  -14.3122   38.2347 C   0  0  1  0  0  0  0  0  0  0  0  0
   98.0943  -14.5239   39.5672 C   0  0  0  0  0  0  0  0  0  0  0  0
   97.4455  -14.5387   40.6052 O   0  0  0  0  0  0  0  0  0  0  0  0
   99.4503  -14.4034   39.6217 N   0  0  0  0  0  0  0  0  0  0  0  0
  100.1140  -13.7469   40.7384 C   0  0  2  0  0  0  0  0  0  0  0  0
  100.1610  -14.6757   41.9191 C   0  0  0  0  0  0  0  0  0  0  0  0
   99.3963  -12.4557   41.1063 C   0  0  0  0  0  0  0  0  0  0  0  0
   98.1627  -12.4853   41.3981 O   0  0  0  0  0  0  0  0  0  0  0  0
   99.9645  -11.3104   40.7839 N   0  0  0  0  0  0  0  0  0  0  0  0
   99.6372  -10.6073   39.5378 C   0  0  2  0  0  0  0  0  0  0  0  0
  100.8735  -10.0475   38.9058 C   0  0  0  0  0  0  0  0  0  0  0  0
  101.3896   -8.7495   39.4665 C   0  0  0  0  0  0  0  0  0  0  0  0
  102.6406   -8.9927   40.3048 C   0  0  0  0  0  0  0  0  0  0  0  0
  103.6812   -9.5916   39.5146 N   0  0  0  0  0  0  0  0  0  0  0  0
  103.7046   -9.6677   38.1940 C   0  0  0  0  0  0  0  0  0  0  0  0
  104.7195   -9.1341   37.5418 N   0  0  0  0  0  0  0  0  0  0  0  0
  102.8242  -10.4489   37.6071 N   0  0  0  0  0  0  0  0  0  0  0  0
  101.7209  -10.0563   37.7995 H   0  0  0  0  0  0  0  0  0  0  0  0
   98.6228   -9.4919   39.7397 C   0  0  0  0  0  0  0  0  0  0  0  0
   98.9786   -8.4354   40.2061 O   0  0  0  0  0  0  0  0  0  0  0  0
   97.4880   -9.5315   39.0334 N   0  0  0  0  0  0  0  0  0  0  0  0
   97.1680   -8.5254   38.0641 C   0  0  1  0  0  0  0  0  0  0  0  0
   97.1609   -9.1211   36.6706 C   0  0  0  0  0  0  0  0  0  0  0  0
   96.7306   -8.1421   35.5921 C   0  0  0  0  0  0  0  0  0  0  0  0
   97.6531   -6.9459   35.5106 C   0  0  0  0  0  0  0  0  0  0  0  0
   96.9842   -5.7324   34.9349 C   0  0  0  0  0  0  0  0  0  0  0  0
   97.8095   -4.4866   35.0633 N   0  0  0  0  0  0  0  0  0  0  0  0
   95.8560   -7.8419   38.3909 C   0  0  0  0  0  0  0  0  0  0  0  0
   94.8129   -8.5141   38.4803 O   0  0  0  0  0  0  0  0  0  0  0  0
   95.8931   -6.5632   38.7811 N   0  0  0  0  0  0  0  0  0  0  0  0
   97.1970   -5.9155   39.1311 C   0  0  2  0  0  0  0  0  0  0  0  0
   97.4354   -6.1660   40.5683 C   0  0  0  0  0  0  0  0  0  0  0  0
   98.6960   -5.6013   40.9799 O   0  0  0  0  0  0  0  0  0  0  0  0
   97.1499   -4.4290   38.8144 C   0  0  0  0  0  0  0  0  0  0  0  0
   98.1489   -3.6962   39.1065 O   0  0  0  0  0  0  0  0  0  0  0  0
   96.1718   -3.9776   38.0215 N   0  0  0  0  0  0  0  0  0  0  0  0
   95.7248   -4.7402   36.8432 C   0  0  1  0  0  0  0  0  0  0  0  0
   94.3590   -4.3244   36.4141 C   0  0  0  0  0  0  0  0  0  0  0  0
   94.0605   -3.1092   36.3515 O   0  0  0  0  0  0  0  0  0  0  0  0
   93.3960   -5.2463   36.3728 N   0  0  0  0  0  0  0  0  0  0  0  0
   93.5573   -6.4552   35.5926 C   0  0  0  0  0  0  0  0  0  0  0  0
   93.9645   -6.0398   34.1459 C   0  0  0  0  0  0  0  0  0  0  0  0
   93.9507   -6.8345   33.2534 O   0  0  0  0  0  0  0  0  0  0  0  0
   93.9150   -4.7365   33.9314 N   0  0  0  0  0  0  0  0  0  0  0  0
   94.2065   -3.7797   34.9752 C   0  0  0  0  0  0  0  0  0  0  0  0
   95.4901   -3.0291   34.8860 C   0  0  0  0  0  0  0  0  0  0  0  0
   95.4991   -1.7686   34.9252 O   0  0  0  0  0  0  0  0  0  0  0  0
   96.5613   -3.7297   34.5824 N   0  0  0  0  0  0  0  0  0  0  0  0
   97.8805   -3.1754   34.3856 C   0  0  1  0  0  0  0  0  0  0  0  0
   98.7125   -3.9901   33.4369 C   0  0  0  0  0  0  0  0  0  0  0  0
   99.5553   -5.0172   34.1360 C   0  0  0  0  0  0  0  0  0  0  0  0
  101.0189   -4.6012   34.1230 C   0  0  0  0  0  0  0  0  0  0  0  0
  101.9171   -5.8497   34.1370 C   0  0  0  0  0  0  0  0  0  0  0  0
  103.1754   -5.4262   34.6341 N   0  0  0  0  0  0  0  0  0  0  0  0
  104.4317   -6.0737   34.2445 C   0  0  0  0  0  0  0  0  0  0  0  0
  105.2509   -6.4329   35.1107 O   0  0  0  0  0  0  0  0  0  0  0  0
  104.9396   -5.7733   32.8538 C   0  0  0  0  0  0  0  0  0  0  0  0
  106.1021   -6.3067   32.4391 C   0  0  0  0  0  0  0  0  0  0  0  0
  106.3270   -7.8089   32.4842 C   0  0  0  0  0  0  0  0  0  0  0  0
   97.6736   -1.7701   33.8297 C   0  0  0  0  0  0  0  0  0  0  0  0
   98.5994   -1.0988   33.3600 O   0  0  0  0  0  0  0  0  0  0  0  0
   96.4705   -1.1487   34.0770 N   0  0  0  0  0  0  0  0  0  0  0  0
   96.1805   -0.6857   35.4649 C   0  0  1  0  0  0  0  0  0  0  0  0
   96.2537   -1.8246   36.4637 C   0  0  0  0  0  0  0  0  0  0  0  0
   97.0730    0.4802   35.8279 C   0  0  0  0  0  0  0  0  0  0  0  0
   96.6783    1.6226   35.7035 O   0  0  0  0  0  0  0  0  0  0  0  0
   98.3475    0.1629   36.1387 N   0  0  0  0  0  0  0  0  0  0  0  0
   98.9733   -1.1443   36.1988 C   0  0  0  0  0  0  0  0  0  0  0  0
  100.2485   -0.9098   36.9946 C   0  0  0  0  0  0  0  0  0  0  0  0
  100.5328    0.5599   36.8987 C   0  0  0  0  0  0  0  0  0  0  0  0
   99.1837    1.2459   36.7361 C   0  0  2  0  0  0  0  0  0  0  0  0
   98.6249    1.7085   38.0970 C   0  0  0  0  0  0  0  0  0  0  0  0
   98.4754    0.8874   38.9891 O   0  0  0  0  0  0  0  0  0  0  0  0
   98.1160    2.8261   38.1267 O   0  0  0  0  0  0  0  0  0  0  0  0
   96.6893   -4.5704   35.7327 C   0  0  1  0  0  0  0  0  0  0  0  0
   97.1784   -3.1495   35.6178 C   0  0  0  0  0  0  0  0  0  0  0  0
   97.7885   -5.4525   35.9158 O   0  0  0  0  0  0  0  0  0  0  0  0
   96.8033  -15.6117   37.7556 C   0  0  1  0  0  0  0  0  0  0  0  0
   96.6610  -16.6074   38.9163 C   0  0  0  0  0  0  0  0  0  0  0  0
   95.4513  -15.3065   37.2282 O   0  0  0  0  0  0  0  0  0  0  0  0
   98.6030  -14.0353   32.9362 C   0  0  2  0  0  0  0  0  0  0  0  0
   97.1932  -14.2876   32.4684 C   0  0  0  0  0  0  0  0  0  0  0  0
   98.5134  -13.7711   34.3699 O   0  0  0  0  0  0  0  0  0  0  0  0
 15 13  1  0
 13 11  1  0
 13 14  1  6
 11 12  2  0
 11 10  1  0
 10  9  1  0
  9 16  1  0
  9  8  1  6
 16 17  2  0
 16 18  1  0
  8  7  1  0
  7  6  1  0
  6  5  1  0
  5  3  1  0
  3  2  2  0
  3  4  1  0
 19 18  1  1
 19 20  1  0
 19121  1  0
 20 21  2  0
 20 22  1  0
121123  1  0
121122  1  1
 22 23  1  0
 23 29  1  0
 23 24  1  1
 29 30  2  0
 29 31  1  0
 24 25  1  0
 25 26  1  0
 26 27  1  0
 27 28  1  0
 31 32  1  0
 32 38  1  0
 32 33  1  6
 38 39  2  0
 38 40  1  0
 33 34  1  0
 34 35  1  0
 35 37  2  0
 35 36  1  0
 41 40  1  6
 41 42  1  0
 41118  1  0
 42 43  2  0
 42 44  1  0
118120  1  0
118119  1  1
 44 45  1  0
 45 47  1  0
 45 46  1  6
 47 48  2  0
 47 49  1  0
 49 50  1  0
 50 59  1  0
 50 51  1  6
 59 60  2  0
 59 61  1  0
 51 52  1  0
 52 53  1  0
 53 54  1  0
 54 55  1  0
 55 57  2  0
 55 56  1  0
 61 62  1  0
 62 68  1  0
 62 63  1  6
 68 69  2  0
 68 70  1  0
 63 64  1  0
 64 65  1  0
 65 66  1  0
 66 67  1  0
 70 71  1  0
 71 74  1  0
 71 72  1  6
 74 75  2  0
 74 76  1  0
 72 73  1  0
 77 76  1  6
 77 78  1  0
 77115  1  0
 78 79  2  0
 78 80  1  0
115117  1  0
115116  1  1
 80 81  1  0
 81 82  1  0
 82 83  2  0
 82 84  1  0
 84 85  1  0
 85 86  1  0
 86 87  2  0
 86 88  1  0
 88 89  1  0
 89 90  1  6
 89100  1  0
 90 91  1  0
 91 92  1  0
 92 93  1  0
 93 94  1  0
 94 95  1  0
 95 96  2  0
 95 97  1  0
 97 98  2  0
 98 99  1  0
100101  2  0
100102  1  0
102103  1  0
103105  1  0
103104  1  1
105106  2  0
105107  1  0
107111  1  0
107108  1  0
111112  1  6
111110  1  0
112113  2  0
112114  1  0
110109  1  0
109108  1  0
  2  1  1  0
 57 58  1  0
M  CHG  3  15   1  28   1  67   1
M  END
$$$$
