
     RDKit          3D

123123  0  0  0  0  0  0  0  0999 V2000
  104.4575   -9.4778   35.2007 H   0  0  0  0  0  0  0  0  0  0  0  0
  105.0050   -9.6750   34.3630 N   0  0  0  0  0  0  0  0  0  0  0  0
  105.4130  -10.9050   34.1160 C   0  0  0  0  0  0  0  0  0  0  0  0
  106.1550  -11.1560   33.0350 N   0  0  0  0  0  0  0  0  0  0  0  0
  105.1050  -11.8810   34.9660 N   0  0  0  0  0  0  0  0  0  0  0  0
  104.2990  -11.6990   36.1710 C   0  0  0  0  0  0  0  0  0  0  0  0
  102.9720  -12.4260   36.0540 C   0  0  0  0  0  0  0  0  0  0  0  0
  102.2070  -12.0190   34.7850 C   0  0  0  0  0  0  0  0  0  0  0  0
  100.8230  -12.6570   34.6640 C   0  0  2  0  0  0  0  0  0  0  0  0
  100.9230  -14.1060   34.5740 N   0  0  0  0  0  0  0  0  0  0  0  0
   99.9760  -14.9220   35.0240 C   0  0  0  0  0  0  0  0  0  0  0  0
   98.9840  -14.5250   35.6010 O   0  0  0  0  0  0  0  0  0  0  0  0
  100.1980  -16.4190   34.7780 C   0  0  2  0  0  0  0  0  0  0  0  0
   99.7620  -16.7890   33.3560 C   0  0  0  0  0  0  0  0  0  0  0  0
   99.5000  -17.2530   35.7480 N   0  0  0  0  0  0  0  0  0  0  0  0
  100.1230  -12.1290   33.4220 C   0  0  0  0  0  0  0  0  0  0  0  0
  100.3570  -12.6100   32.3090 O   0  0  0  0  0  0  0  0  0  0  0  0
   99.2020  -11.2030   33.6200 N   0  0  0  0  0  0  0  0  0  0  0  0
   98.5140  -10.6030   32.4920 C   0  0  2  0  0  0  0  0  0  0  0  0
   98.7200   -9.1020   32.5500 C   0  0  0  0  0  0  0  0  0  0  0  0
   99.2310   -8.5620   33.5390 O   0  0  0  0  0  0  0  0  0  0  0  0
   98.2570   -8.4220   31.4960 N   0  0  0  0  0  0  0  0  0  0  0  0
   98.3280   -6.9670   31.4920 C   0  0  1  0  0  0  0  0  0  0  0  0
   97.7240   -6.4130   30.1920 C   0  0  0  0  0  0  0  0  0  0  0  0
   97.7770   -4.8860   30.0860 C   0  0  0  0  0  0  0  0  0  0  0  0
   97.3620   -4.3740   28.7050 C   0  0  0  0  0  0  0  0  0  0  0  0
   98.3400   -4.8220   27.6350 C   0  0  0  0  0  0  0  0  0  0  0  0
   98.7200   -3.7610   26.6490 N   0  0  0  0  0  0  0  0  0  0  0  0
   97.6140   -6.3850   32.6990 C   0  0  0  0  0  0  0  0  0  0  0  0
   98.0420   -5.3600   33.2420 O   0  0  0  0  0  0  0  0  0  0  0  0
   96.5580   -7.0510   33.1590 N   0  0  0  0  0  0  0  0  0  0  0  0
   95.8090   -6.5890   34.3190 C   0  0  1  0  0  0  0  0  0  0  0  0
   94.4140   -7.2150   34.2980 C   0  0  0  0  0  0  0  0  0  0  0  0
   93.5010   -6.8400   35.4370 C   0  0  0  0  0  0  0  0  0  0  0  0
   92.0560   -7.0640   35.0500 C   0  0  0  0  0  0  0  0  0  0  0  0
   91.4000   -8.0260   35.6890 N   0  0  0  0  0  0  0  0  0  0  0  0
   91.5360   -6.3740   34.1710 O   0  0  0  0  0  0  0  0  0  0  0  0
   96.5530   -6.8730   35.6210 C   0  0  0  0  0  0  0  0  0  0  0  0
   96.6780   -5.9850   36.4710 O   0  0  0  0  0  0  0  0  0  0  0  0
   97.0630   -8.0990   35.7990 N   0  0  0  0  0  0  0  0  0  0  0  0
   97.7670   -8.4170   37.0430 C   0  0  2  0  0  0  0  0  0  0  0  0
   99.0180   -7.5550   37.2070 C   0  0  0  0  0  0  0  0  0  0  0  0
   99.3240   -7.0950   38.3140 O   0  0  0  0  0  0  0  0  0  0  0  0
   99.7530   -7.3250   36.1150 N   0  0  0  0  0  0  0  0  0  0  0  0
  100.9540   -6.4950   36.1860 C   0  0  1  0  0  0  0  0  0  0  0  0
  101.7130   -6.5500   34.8630 C   0  0  0  0  0  0  0  0  0  0  0  0
  100.6010   -5.0570   36.5490 C   0  0  0  0  0  0  0  0  0  0  0  0
  101.2370   -4.4480   37.4170 O   0  0  0  0  0  0  0  0  0  0  0  0
   99.5810   -4.4980   35.8840 N   0  0  0  0  0  0  0  0  0  0  0  0
   99.1600   -3.1230   36.1500 C   0  0  1  0  0  0  0  0  0  0  0  0
   97.9740   -2.7670   35.2540 C   0  0  0  0  0  0  0  0  0  0  0  0
   97.7880   -1.3030   34.9900 C   0  0  0  0  0  0  0  0  0  0  0  0
   96.4500   -1.0660   34.3250 C   0  0  0  0  0  0  0  0  0  0  0  0
   96.5140   -1.2020   32.8730 N   0  0  0  0  0  0  0  0  0  0  0  0
   95.7620   -2.0430   32.1670 C   0  0  0  0  0  0  0  0  0  0  0  0
   95.8760   -2.0940   30.8430 N   0  0  0  0  0  0  0  0  0  0  0  0
   94.8940   -2.8350   32.7830 N   0  0  0  0  0  0  0  0  0  0  0  0
   94.8027   -2.7996   33.7983 H   0  0  0  0  0  0  0  0  0  0  0  0
   98.7870   -2.9290   37.6130 C   0  0  0  0  0  0  0  0  0  0  0  0
   99.1300   -1.9070   38.2180 O   0  0  0  0  0  0  0  0  0  0  0  0
   98.0900   -3.8990   38.2060 N   0  0  0  0  0  0  0  0  0  0  0  0
   97.7590   -3.7850   39.6220 C   0  0  1  0  0  0  0  0  0  0  0  0
   96.6010   -4.7210   39.9710 C   0  0  0  0  0  0  0  0  0  0  0  0
   95.2510   -4.0160   40.0300 C   0  0  0  0  0  0  0  0  0  0  0  0
   94.1080   -4.9510   39.6690 C   0  0  0  0  0  0  0  0  0  0  0  0
   92.8930   -4.1720   39.1810 C   0  0  0  0  0  0  0  0  0  0  0  0
   93.2650   -3.0990   38.2150 N   0  0  0  0  0  0  0  0  0  0  0  0
   98.9650   -4.0760   40.5070 C   0  0  0  0  0  0  0  0  0  0  0  0
   99.1550   -3.4140   41.5310 O   0  0  0  0  0  0  0  0  0  0  0  0
   99.7940   -5.0510   40.1170 N   0  0  0  0  0  0  0  0  0  0  0  0
  100.9670   -5.4290   40.9050 C   0  0  1  0  0  0  0  0  0  0  0  0
  101.7390   -6.5300   40.1750 C   0  0  0  0  0  0  0  0  0  0  0  0
  103.0270   -6.7080   40.7260 O   0  0  0  0  0  0  0  0  0  0  0  0
  101.8750   -4.2370   41.1850 C   0  0  0  0  0  0  0  0  0  0  0  0
  102.4800   -4.1420   42.2590 O   0  0  0  0  0  0  0  0  0  0  0  0
  102.0230   -3.3430   40.2090 N   0  0  0  0  0  0  0  0  0  0  0  0
  102.8380   -2.1480   40.3760 C   0  0  2  0  0  0  0  0  0  0  0  0
  102.1290   -1.0440   41.1400 C   0  0  0  0  0  0  0  0  0  0  0  0
  102.7930   -0.1360   41.6470 O   0  0  0  0  0  0  0  0  0  0  0  0
  100.8070   -1.0600   41.1820 N   0  0  0  0  0  0  0  0  0  0  0  0
  100.0760    0.1120   41.6020 C   0  0  0  0  0  0  0  0  0  0  0  0
  100.1210    1.1520   40.4960 C   0  0  0  0  0  0  0  0  0  0  0  0
  100.6570    0.9380   39.4100 O   0  0  0  0  0  0  0  0  0  0  0  0
   99.5580    2.3140   40.7960 N   0  0  0  0  0  0  0  0  0  0  0  0
   99.4950    3.3720   39.8060 C   0  0  0  0  0  0  0  0  0  0  0  0
  100.8230    4.0180   39.4540 C   0  0  0  0  0  0  0  0  0  0  0  0
  101.7810    3.9670   40.2250 O   0  0  0  0  0  0  0  0  0  0  0  0
  100.8760    4.6070   38.2660 N   0  0  0  0  0  0  0  0  0  0  0  0
  101.9050    5.5200   37.9220 C   0  0  1  0  0  0  0  0  0  0  0  0
  101.8080    5.9250   36.4580 C   0  0  0  0  0  0  0  0  0  0  0  0
  102.0550    4.7350   35.5390 C   0  0  0  0  0  0  0  0  0  0  0  0
  101.6070    5.0870   34.1200 C   0  0  0  0  0  0  0  0  0  0  0  0
  101.7770    3.8660   33.2020 C   0  0  0  0  0  0  0  0  0  0  0  0
  103.1600    3.8300   32.7970 N   0  0  0  0  0  0  0  0  0  0  0  0
  103.9570    2.6390   32.8240 C   0  0  0  0  0  0  0  0  0  0  0  0
  103.5030    1.5550   33.1460 O   0  0  0  0  0  0  0  0  0  0  0  0
  105.4080    2.7620   32.3870 C   0  0  0  0  0  0  0  0  0  0  0  0
  106.2530    1.7260   32.6000 C   0  0  0  0  0  0  0  0  0  0  0  0
  107.6940    1.8560   32.1670 C   0  0  0  0  0  0  0  0  0  0  0  0
  101.7500    6.7300   38.8310 C   0  0  0  0  0  0  0  0  0  0  0  0
  100.6160    7.0510   39.2650 O   0  0  0  0  0  0  0  0  0  0  0  0
  102.8390    7.4220   39.1360 N   0  0  0  0  0  0  0  0  0  0  0  0
  102.7320    8.6440   39.9290 C   0  0  1  0  0  0  0  0  0  0  0  0
  104.1140    9.1910   40.2610 C   0  0  0  0  0  0  0  0  0  0  0  0
  101.9110    9.7030   39.2030 C   0  0  0  0  0  0  0  0  0  0  0  0
  102.1010    9.9370   38.0130 O   0  0  0  0  0  0  0  0  0  0  0  0
  100.9780   10.3430   39.9160 N   0  0  0  0  0  0  0  0  0  0  0  0
  100.4680   10.0050   41.2560 C   0  0  0  0  0  0  0  0  0  0  0  0
   99.4180   11.0510   41.5040 C   0  0  0  0  0  0  0  0  0  0  0  0
   99.0080   11.5900   40.1750 C   0  0  0  0  0  0  0  0  0  0  0  0
  100.2520   11.4570   39.2980 C   0  0  1  0  0  0  0  0  0  0  0  0
  101.0780   12.7460   39.3040 C   0  0  0  0  0  0  0  0  0  0  0  0
  102.2450   12.7220   39.7130 O   0  0  0  0  0  0  0  0  0  0  0  0
  100.5700   13.7990   38.9000 O   0  0  0  0  0  0  0  0  0  0  0  0
  103.2460   -1.5930   39.0140 C   0  0  1  0  0  0  0  0  0  0  0  0
  103.7480   -2.7120   38.1080 C   0  0  0  0  0  0  0  0  0  0  0  0
  102.1110   -0.9630   38.4090 O   0  0  0  0  0  0  0  0  0  0  0  0
   98.1350   -9.9080   37.1050 C   0  0  1  0  0  0  0  0  0  0  0  0
   96.9360  -10.7780   36.7450 C   0  0  0  0  0  0  0  0  0  0  0  0
   99.2120  -10.2050   36.2020 O   0  0  0  0  0  0  0  0  0  0  0  0
   97.0180  -10.9290   32.4920 C   0  0  1  0  0  0  0  0  0  0  0  0
   96.8130  -12.4430   32.4720 C   0  0  0  0  0  0  0  0  0  0  0  0
   96.4110  -10.3710   33.6640 O   0  0  0  0  0  0  0  0  0  0  0  0
 15 13  1  0
 13 11  1  0
 13 14  1  6
 11 12  2  0
 11 10  1  0
 10  9  1  0
  9 16  1  0
  9  8  1  6
 16 17  2  0
 16 18  1  0
  8  7  1  0
  7  6  1  0
  6  5  1  0
  5  3  1  0
  3  2  2  0
  3  4  1  0
 19 18  1  1
 19 20  1  0
 19121  1  0
 20 21  2  0
 20 22  1  0
121123  1  0
121122  1  1
 22 23  1  0
 23 29  1  0
 23 24  1  6
 29 30  2  0
 29 31  1  0
 24 25  1  0
 25 26  1  0
 26 27  1  0
 27 28  1  0
 31 32  1  0
 32 38  1  0
 32 33  1  1
 38 39  2  0
 38 40  1  0
 33 34  1  0
 34 35  1  0
 35 37  2  0
 35 36  1  0
 41 40  1  6
 41 42  1  0
 41118  1  0
 42 43  2  0
 42 44  1  0
118120  1  0
118119  1  6
 44 45  1  0
 45 47  1  0
 45 46  1  6
 47 48  2  0
 47 49  1  0
 49 50  1  0
 50 59  1  0
 50 51  1  6
 59 60  2  0
 59 61  1  0
 51 52  1  0
 52 53  1  0
 53 54  1  0
 54 55  1  0
 55 57  2  0
 55 56  1  0
 61 62  1  0
 62 68  1  0
 62 63  1  1
 68 69  2  0
 68 70  1  0
 63 64  1  0
 64 65  1  0
 65 66  1  0
 66 67  1  0
 70 71  1  0
 71 74  1  0
 71 72  1  6
 74 75  2  0
 74 76  1  0
 72 73  1  0
 77 76  1  6
 77 78  1  0
 77115  1  0
 78 79  2  0
 78 80  1  0
115117  1  0
115116  1  6
 80 81  1  0
 81 82  1  0
 82 83  2  0
 82 84  1  0
 84 85  1  0
 85 86  1  0
 86 87  2  0
 86 88  1  0
 88 89  1  0
 89 90  1  6
 89100  1  0
 90 91  1  0
 91 92  1  0
 92 93  1  0
 93 94  1  0
 94 95  1  0
 95 96  2  0
 95 97  1  0
 97 98  2  0
 98 99  1  0
100101  2  0
100102  1  0
102103  1  0
103105  1  0
103104  1  6
105106  2  0
105107  1  0
107111  1  0
107108  1  0
111112  1  1
111110  1  0
112113  2  0
112114  1  0
110109  1  0
109108  1  0
  2  1  1  0
 57 58  1  0
M  CHG  3  15   1  28   1  67   1
M  END
$$$$
