
     RDKit          3D

 41 45  0  0  0  0  0  0  0  0999 V2000
    8.8578    5.7616  -12.8488 C   0  0  0  0  0  0  0  0  0  0  0  0
   10.3139    5.8447  -13.3279 C   0  0  0  0  0  0  0  0  0  0  0  0
   11.4285    5.6733  -12.3006 C   0  0  0  0  0  0  0  0  0  0  0  0
   12.4078    4.9538  -12.5889 O   0  0  0  0  0  0  0  0  0  0  0  0
   11.1847    5.9186  -11.0328 N   0  0  0  0  0  0  0  0  0  0  0  0
   10.0823    5.2519  -10.3445 C   0  0  0  0  0  0  0  0  0  0  0  0
   10.5237    4.5873   -9.0632 C   0  0  0  0  0  0  0  0  0  0  0  0
   11.2865    5.5181   -8.1938 N   0  0  0  0  0  0  0  0  0  0  0  0
   12.0360    4.9814   -7.0737 C   0  0  0  0  0  0  0  0  0  0  0  0
   13.3695    4.9646   -7.4285 N   0  0  0  0  0  0  0  0  0  0  0  0
   14.2162    5.7721   -6.8153 C   0  0  0  0  0  0  0  0  0  0  0  0
   15.2519    6.1903   -7.4797 O   0  0  0  0  0  0  0  0  0  0  0  0
   13.8177    6.5254   -5.7350 N   0  0  0  0  0  0  0  0  0  0  0  0
   14.0569    7.8895   -5.6946 C   0  0  0  0  0  0  0  0  0  0  0  0
   15.3587    8.3702   -5.2955 C   0  0  0  0  0  0  0  0  0  0  0  0
   16.5527    7.3941   -5.2137 C   0  0  0  0  0  0  0  0  0  0  0  0
   15.5198    9.7245   -5.2658 C   0  0  0  0  0  0  0  0  0  0  0  0
   14.5210   10.5455   -5.6284 C   0  0  0  0  0  0  0  0  0  0  0  0
   13.3416   10.0860   -6.0176 N   0  0  0  0  0  0  0  0  0  0  0  0
   13.1883    8.7797   -6.3103 C   0  0  0  0  0  0  0  0  0  0  0  0
   12.4100    8.3807   -7.5634 C   0  0  1  0  0  0  0  0  0  0  0  0
   11.1031    7.7097   -7.2312 C   0  0  0  0  0  0  0  0  0  0  0  0
   12.1689    9.6383   -8.4283 C   0  0  0  0  0  0  0  0  0  0  0  0
   12.7282    6.0099   -5.0100 C   0  0  0  0  0  0  0  0  0  0  0  0
   12.8700    5.8302   -3.6922 N   0  0  0  0  0  0  0  0  0  0  0  0
   12.2760    4.7571   -3.0449 C   0  0  0  0  0  0  0  0  0  0  0  0
   13.1031    3.9269   -2.2482 C   0  0  0  0  0  0  0  0  0  0  0  0
   14.4124    3.6931   -2.6899 C   0  0  0  0  0  0  0  0  0  0  0  0
   14.6837    3.3247   -3.9679 O   0  0  0  0  0  0  0  0  0  0  0  0
   15.4438    3.6264   -1.7453 C   0  0  0  0  0  0  0  0  0  0  0  0
   15.1478    3.6402   -0.3926 C   0  0  0  0  0  0  0  0  0  0  0  0
   13.8093    3.7192    0.0393 C   0  0  0  0  0  0  0  0  0  0  0  0
   12.7964    3.7810   -0.8933 C   0  0  0  0  0  0  0  0  0  0  0  0
   11.5127    3.8549   -0.4489 F   0  0  0  0  0  0  0  0  0  0  0  0
   11.1176    4.2532   -3.6520 C   0  0  0  0  0  0  0  0  0  0  0  0
   10.3507    3.3763   -2.9608 F   0  0  0  0  0  0  0  0  0  0  0  0
   10.8309    4.5683   -4.9785 C   0  0  0  0  0  0  0  0  0  0  0  0
   11.7410    5.2943   -5.7232 C   0  0  0  0  0  0  0  0  0  0  0  0
   11.8332    6.7558   -8.7828 C   0  0  2  0  0  0  0  0  0  0  0  0
   11.0167    4.3178  -10.2233 C   0  0  0  0  0  0  0  0  0  0  0  0
   12.2614    6.4970  -10.2282 C   0  0  0  0  0  0  0  0  0  0  0  0
 39 40  1  1
 39 41  1  0
 39  8  1  0
 41  5  1  0
  5  3  1  0
  5  6  1  0
  3  4  2  0
  3  2  1  0
  2  1  1  0
  6  7  1  0
  7  8  1  0
  8  9  1  0
  9 10  4  0
  9 38  4  0
 10 11  4  0
 11 12  2  0
 11 13  4  0
 13 14  1  0
 13 24  4  0
 14 15  4  0
 14 20  4  0
 15 16  1  0
 15 17  4  0
 17 18  4  0
 18 19  4  0
 19 20  4  0
 20 21  1  0
 21 22  1  1
 21 23  1  0
 24 25  4  0
 24 38  4  0
 25 26  4  0
 38 37  4  0
 37 35  4  0
 35 36  1  0
 35 26  4  0
 26 27  1  0
 27 33  4  0
 27 28  4  0
 33 34  1  0
 33 32  4  0
 32 31  4  0
 31 30  4  0
 30 28  4  0
 28 29  1  0
M  END
$$$$
