
     RDKit          3D

 24 26  0  0  0  0  0  0  0  0999 V2000
   -5.3990    9.8300  -16.9180 O   0  0  0  0  0  0  0  0  0  0  0  0
   -5.1130   10.6220  -17.8550 C   0  0  0  0  0  0  0  0  0  0  0  0
   -3.9370   10.4660  -18.6150 N   0  0  0  0  0  0  0  0  0  0  0  0
   -2.9990    9.4410  -18.3220 N   0  0  0  0  0  0  0  0  0  0  0  0
   -3.2160    7.9180  -19.2530 S   0  0  2  0  0  0  0  0  0  0  0  0
   -4.5920    7.5870  -19.6210 O   0  0  0  0  0  0  0  0  0  0  0  0
   -2.4900    6.8440  -18.5480 O   0  0  0  0  0  0  0  0  0  0  0  0
   -2.4270    8.0900  -20.8970 C   0  0  0  0  0  0  0  0  0  0  0  0
   -2.9090    9.1110  -21.7050 C   0  0  0  0  0  0  0  0  0  0  0  0
   -2.4250    9.2900  -22.9770 C   0  0  0  0  0  0  0  0  0  0  0  0
   -1.3860    8.4220  -23.4020 C   0  0  0  0  0  0  0  0  0  0  0  0
   -0.8800    8.5860  -24.7100 C   0  0  0  0  0  0  0  0  0  0  0  0
    0.1660    7.7050  -25.0980 C   0  0  0  0  0  0  0  0  0  0  0  0
    0.6690    6.7070  -24.2800 C   0  0  0  0  0  0  0  0  0  0  0  0
    0.1110    6.4990  -23.0140 C   0  0  0  0  0  0  0  0  0  0  0  0
   -0.8650    7.4020  -22.5700 C   0  0  0  0  0  0  0  0  0  0  0  0
   -1.4040    7.1890  -21.2760 C   0  0  0  0  0  0  0  0  0  0  0  0
   -5.8910   11.7560  -18.2650 C   0  0  0  0  0  0  0  0  0  0  0  0
   -6.4900   12.5650  -17.2720 C   0  0  0  0  0  0  0  0  0  0  0  0
   -7.2420   13.6700  -17.7290 C   0  0  0  0  0  0  0  0  0  0  0  0
   -7.4370   14.0240  -19.1190 C   0  0  0  0  0  0  0  0  0  0  0  0
   -6.8680   13.2320  -20.1140 C   0  0  0  0  0  0  0  0  0  0  0  0
   -6.1240   12.1400  -19.6650 C   0  0  0  0  0  0  0  0  0  0  0  0
   -5.6080   11.3750  -20.6940 F   0  0  0  0  0  0  0  0  0  0  0  0
  2 18  1  0
  2  1  2  0
  3  2  1  0
 18 23  1  0
 18 19  2  0
 23 22  2  0
 22 21  1  0
 23 24  1  0
 19 20  1  0
 20 21  2  0
 15 14  2  0
 16 15  1  0
 14 13  1  0
  4  3  1  0
  5  4  1  1
  5  6  2  0
  5  7  2  0
  8  5  1  0
 17  8  1  0
  8  9  2  0
 17 16  2  0
 16 11  1  0
 13 12  2  0
 12 11  1  0
 11 10  2  0
 10  9  1  0
M  END
$$$$
