
     RDKit          3D

 25 27  0  0  0  0  0  0  0  0999 V2000
    5.4200   10.0850   16.8960 O   0  0  0  0  0  0  0  0  0  0  0  0
    5.1860   10.7850   17.8550 C   0  0  0  0  0  0  0  0  0  0  0  0
    4.1000   10.5810   18.6230 N   0  0  0  0  0  0  0  0  0  0  0  0
    3.0830    9.4720   18.2430 N   0  0  0  0  0  0  0  0  0  0  0  0
    3.2340    8.0140   19.2950 S   0  0  1  0  0  0  0  0  0  0  0  0
    2.4190    6.9180   18.8180 O   0  0  0  0  0  0  0  0  0  0  0  0
    4.6680    7.5900   19.6530 O   0  0  0  0  0  0  0  0  0  0  0  0
    2.5830    8.4600   20.9640 C   0  0  0  0  0  0  0  0  0  0  0  0
    3.2190    9.4630   21.7100 C   0  0  0  0  0  0  0  0  0  0  0  0
    2.7030    9.7000   23.0160 C   0  0  0  0  0  0  0  0  0  0  0  0
    1.5170    9.0470   23.3820 C   0  0  0  0  0  0  0  0  0  0  0  0
    0.8930    8.0890   22.5730 C   0  0  0  0  0  0  0  0  0  0  0  0
    1.4680    7.7670   21.3100 C   0  0  0  0  0  0  0  0  0  0  0  0
    6.0000   11.8630   18.1960 C   0  0  0  0  0  0  0  0  0  0  0  0
    6.2020   12.1230   19.5910 C   0  0  0  0  0  0  0  0  0  0  0  0
    7.0240   13.2200   19.9350 C   0  0  0  0  0  0  0  0  0  0  0  0
    7.5760   14.0620   18.9300 C   0  0  0  0  0  0  0  0  0  0  0  0
    7.2620   13.8200   17.5460 C   0  0  0  0  0  0  0  0  0  0  0  0
    7.7490   14.7020   16.5400 C   0  0  0  0  0  0  0  0  0  0  0  0
    8.1460   14.2700   15.2690 C   0  0  0  0  0  0  0  0  0  0  0  0
    8.6470   15.1500   14.2570 C   0  0  0  0  0  0  0  0  0  0  0  0
    8.8020   16.5440   14.5500 C   0  0  0  0  0  0  0  0  0  0  0  0
    8.3750   16.9310   15.8320 C   0  0  0  0  0  0  0  0  0  0  0  0
    7.9330   16.0360   16.8380 C   0  0  0  0  0  0  0  0  0  0  0  0
    6.4580   12.7180   17.2150 C   0  0  0  0  0  0  0  0  0  0  0  0
 14  2  1  0
  2  1  2  0
  2  3  1  0
 25 14  2  0
 14 15  1  0
 18 25  1  0
 18 17  2  0
 19 18  1  0
 16 15  2  0
 17 16  1  0
 20 19  2  0
 19 24  1  0
 21 22  2  0
 22 23  1  0
 21 20  1  0
 23 24  2  0
  3  4  1  0
  5  4  1  6
  5  6  2  0
  5  7  2  0
  5  8  1  0
  8  9  2  0
  8 13  1  0
  9 10  1  0
 10 11  2  0
 11 12  1  0
 12 13  2  0
M  END
$$$$
