
     RDKit          3D

 25 27  0  0  0  0  0  0  0  0999 V2000
    7.3420   14.3790   21.5490 C   0  0  0  0  0  0  0  0  0  0  0  0
    7.1290   14.0480   20.1110 C   0  0  0  0  0  0  0  0  0  0  0  0
    7.6970   14.8120   19.1050 C   0  0  0  0  0  0  0  0  0  0  0  0
    7.4780   14.4740   17.7750 C   0  0  0  0  0  0  0  0  0  0  0  0
    6.7190   13.3570   17.4600 C   0  0  0  0  0  0  0  0  0  0  0  0
    6.1700   12.5880   18.4730 C   0  0  0  0  0  0  0  0  0  0  0  0
    5.3230   11.4190   18.1050 C   0  0  0  0  0  0  0  0  0  0  0  0
    5.5650   10.7950   17.0860 O   0  0  0  0  0  0  0  0  0  0  0  0
    4.2150   11.0930   18.9580 N   0  0  0  0  0  0  0  0  0  0  0  0
    3.3580   10.0780   18.6930 N   0  0  0  0  0  0  0  0  0  0  0  0
    3.6580    8.7370   19.5730 S   0  0  2  0  0  0  0  0  0  0  0  0
    5.0620    8.5280   19.7830 O   0  0  0  0  0  0  0  0  0  0  0  0
    3.0850    7.6080   18.9200 O   0  0  0  0  0  0  0  0  0  0  0  0
    2.8920    8.8510   21.1570 C   0  0  0  0  0  0  0  0  0  0  0  0
    3.3330    9.8150   22.0520 C   0  0  0  0  0  0  0  0  0  0  0  0
    2.7330    9.9030   23.3080 C   0  0  0  0  0  0  0  0  0  0  0  0
    1.6760    9.0200   23.6750 C   0  0  0  0  0  0  0  0  0  0  0  0
    1.0810    9.1230   24.9740 C   0  0  0  0  0  0  0  0  0  0  0  0
    0.0450    8.2570   25.3210 C   0  0  0  0  0  0  0  0  0  0  0  0
   -0.4050    7.2940   24.4070 C   0  0  0  0  0  0  0  0  0  0  0  0
    0.1870    7.1890   23.1470 C   0  0  0  0  0  0  0  0  0  0  0  0
    1.2480    8.0720   22.7900 C   0  0  0  0  0  0  0  0  0  0  0  0
    1.8670    7.9760   21.5080 C   0  0  0  0  0  0  0  0  0  0  0  0
    6.3770   12.9390   19.8020 C   0  0  0  0  0  0  0  0  0  0  0  0
    5.8580   12.2300   20.8030 F   0  0  0  0  0  0  0  0  0  0  0  0
 14 23  2  0
 11 14  1  0
 14 15  1  0
 23 22  1  0
 22 17  2  0
 22 21  1  0
 17 18  1  0
 17 16  1  0
 18 19  2  0
 20 19  1  0
 21 20  2  0
  2  1  1  0
 24  2  2  0
  2  3  1  0
 24 25  1  0
  6 24  1  0
  6  5  2  0
  7  6  1  0
  5  4  1  0
  4  3  2  0
  7  8  2  0
  9  7  1  0
 10  9  1  0
 11 10  1  6
 11 12  2  0
 11 13  2  0
 16 15  2  0
M  END
$$$$
