
     RDKit          3D

 26 28  0  0  0  0  0  0  0  0999 V2000
   -5.5140   -9.9880   17.0420 O   0  0  0  0  0  0  0  0  0  0  0  0
   -5.1880  -10.8180   17.9100 C   0  0  0  0  0  0  0  0  0  0  0  0
   -4.0990  -10.6640   18.6860 N   0  0  0  0  0  0  0  0  0  0  0  0
   -3.1730   -9.5880   18.3490 N   0  0  0  0  0  0  0  0  0  0  0  0
   -3.3240   -8.1790   19.3780 S   0  0  1  0  0  0  0  0  0  0  0  0
   -2.5470   -7.0880   18.8470 O   0  0  0  0  0  0  0  0  0  0  0  0
   -4.7530   -7.7710   19.7310 O   0  0  0  0  0  0  0  0  0  0  0  0
   -2.6260   -8.5570   21.0270 C   0  0  0  0  0  0  0  0  0  0  0  0
   -3.2640   -9.5190   21.8020 C   0  0  0  0  0  0  0  0  0  0  0  0
   -2.7630   -9.7840   23.0830 C   0  0  0  0  0  0  0  0  0  0  0  0
   -1.5610   -9.1410   23.4120 C   0  0  0  0  0  0  0  0  0  0  0  0
   -0.9430   -8.1650   22.6130 C   0  0  0  0  0  0  0  0  0  0  0  0
   -1.4840   -7.8340   21.3460 C   0  0  0  0  0  0  0  0  0  0  0  0
   -5.9960  -11.9260   18.2720 C   0  0  0  0  0  0  0  0  0  0  0  0
   -6.2660  -12.1540   19.6740 C   0  0  0  0  0  0  0  0  0  0  0  0
   -7.1060  -13.2600   19.9120 C   0  0  0  0  0  0  0  0  0  0  0  0
   -7.6710  -14.1350   18.9370 C   0  0  0  0  0  0  0  0  0  0  0  0
   -7.3300  -13.8730   17.5620 C   0  0  0  0  0  0  0  0  0  0  0  0
   -7.7900  -14.7320   16.5300 C   0  0  0  0  0  0  0  0  0  0  0  0
   -7.7990  -16.1220   16.7220 C   0  0  0  0  0  0  0  0  0  0  0  0
   -8.1540  -17.0410   15.7080 C   0  0  0  0  0  0  0  0  0  0  0  0
   -8.6570  -16.5450   14.4860 C   0  0  0  0  0  0  0  0  0  0  0  0
   -8.6940  -15.1460   14.2840 C   0  0  0  0  0  0  0  0  0  0  0  0
   -8.2200  -14.2590   15.2770 C   0  0  0  0  0  0  0  0  0  0  0  0
   -6.4850  -12.7690   17.3150 C   0  0  0  0  0  0  0  0  0  0  0  0
   -6.1550  -12.4540   15.9310 F   0  0  0  0  0  0  0  0  0  0  0  0
 14  2  1  0
  2  1  2  0
  2  3  1  0
 25 14  2  0
 14 15  1  0
 18 25  1  0
 18 17  2  0
 19 18  1  0
 25 26  1  0
 16 15  2  0
 17 16  1  0
 20 19  2  0
 19 24  1  0
 21 22  2  0
 22 23  1  0
 21 20  1  0
 23 24  2  0
  3  4  1  0
  5  4  1  6
  5  6  2  0
  5  7  2  0
  5  8  1  0
  8  9  2  0
  8 13  1  0
  9 10  1  0
 10 11  2  0
 11 12  1  0
 12 13  2  0
M  END
$$$$
