
     RDKit          3D

 26 28  0  0  0  0  0  0  0  0999 V2000
   -4.9778  -15.6848   19.1686 O   0  0  0  0  0  0  0  0  0  0  0  0
   -5.7436  -14.7068   19.1863 C   0  0  0  0  0  0  0  0  0  0  0  0
   -5.3522  -13.4710   18.9715 N   0  0  0  0  0  0  0  0  0  0  0  0
   -6.3732  -12.4444   18.7540 N   0  0  0  0  0  0  0  0  0  0  0  0
   -5.8721  -11.0586   17.8122 S   0  0  2  0  0  0  0  0  0  0  0  0
   -7.0109  -10.3989   17.2521 O   0  0  0  0  0  0  0  0  0  0  0  0
   -4.7653  -11.3339   16.7943 O   0  0  0  0  0  0  0  0  0  0  0  0
   -5.0419   -9.8545   18.9274 C   0  0  0  0  0  0  0  0  0  0  0  0
   -4.9549  -10.2056   20.2748 C   0  0  0  0  0  0  0  0  0  0  0  0
   -4.9021   -9.1366   21.2362 C   0  0  0  0  0  0  0  0  0  0  0  0
   -4.9228   -7.8390   20.7017 C   0  0  0  0  0  0  0  0  0  0  0  0
   -4.9668   -7.5281   19.3412 C   0  0  0  0  0  0  0  0  0  0  0  0
   -4.9495   -8.5478   18.3890 C   0  0  0  0  0  0  0  0  0  0  0  0
   -7.1773  -14.8805   19.1484 C   0  0  0  0  0  0  0  0  0  0  0  0
   -7.9676  -13.6985   18.8711 C   0  0  0  0  0  0  0  0  0  0  0  0
   -9.1419  -13.9441   18.1178 C   0  0  0  0  0  0  0  0  0  0  0  0
   -9.6127  -15.2115   17.6763 C   0  0  0  0  0  0  0  0  0  0  0  0
   -8.7126  -16.3077   17.9184 C   0  0  0  0  0  0  0  0  0  0  0  0
   -8.4738  -17.2725   16.8266 C   0  0  0  0  0  0  0  0  0  0  0  0
   -7.6491  -16.8268   15.7466 C   0  0  0  0  0  0  0  0  0  0  0  0
   -7.7855  -17.3814   14.4346 C   0  0  0  0  0  0  0  0  0  0  0  0
   -8.6828  -18.4750   14.2206 C   0  0  0  0  0  0  0  0  0  0  0  0
   -9.3868  -18.9974   15.3151 C   0  0  0  0  0  0  0  0  0  0  0  0
   -9.2719  -18.4130   16.6090 C   0  0  0  0  0  0  0  0  0  0  0  0
   -7.7188  -16.1268   18.8980 C   0  0  0  0  0  0  0  0  0  0  0  0
   -7.6608  -17.0466   20.0150 F   0  0  0  0  0  0  0  0  0  0  0  0
 14  2  1  0
  2  1  2  0
  2  3  1  0
 25 14  4  0
 14 15  4  0
 18 25  4  0
 18 17  4  0
 19 18  1  0
 25 26  1  0
 16 15  4  0
 17 16  4  0
 20 19  4  0
 19 24  4  0
 21 22  4  0
 22 23  4  0
 21 20  4  0
 23 24  4  0
  3  4  1  0
  5  4  1  6
  5  6  2  0
  5  7  2  0
  5  8  1  0
  8  9  4  0
  8 13  4  0
  9 10  4  0
 10 11  4  0
 11 12  4  0
 12 13  4  0
M  END
$$$$
