
     RDKit          3D

 26 28  0  0  0  0  0  0  0  0999 V2000
    7.1386   10.2759   18.0973 O   0  0  0  0  0  0  0  0  0  0  0  0
    6.2990   11.1871   18.0230 C   0  0  0  0  0  0  0  0  0  0  0  0
    4.9885   10.9263   17.6467 N   0  0  0  0  0  0  0  0  0  0  0  0
    4.7452    9.9258   16.7950 N   0  0  0  0  0  0  0  0  0  0  0  0
    3.3265    8.9418   17.3405 S   0  0  1  0  0  0  0  0  0  0  0  0
    2.0145    9.5933   17.1200 O   0  0  0  0  0  0  0  0  0  0  0  0
    3.3658    7.5931   16.7446 O   0  0  0  0  0  0  0  0  0  0  0  0
    3.3482    8.8369   19.1676 C   0  0  0  0  0  0  0  0  0  0  0  0
    3.3915   10.0428   19.8722 C   0  0  0  0  0  0  0  0  0  0  0  0
    3.3595    9.9317   21.2739 C   0  0  0  0  0  0  0  0  0  0  0  0
    3.3740    8.6425   21.9013 C   0  0  0  0  0  0  0  0  0  0  0  0
    3.3372    7.4417   21.1849 C   0  0  0  0  0  0  0  0  0  0  0  0
    3.3668    7.5890   19.7920 C   0  0  0  0  0  0  0  0  0  0  0  0
    6.6395   12.4930   18.4625 C   0  0  0  0  0  0  0  0  0  0  0  0
    6.7227   13.5584   17.5860 C   0  0  0  0  0  0  0  0  0  0  0  0
    6.9016   14.9094   18.0247 C   0  0  0  0  0  0  0  0  0  0  0  0
    7.5325   15.8514   17.1548 C   0  0  0  0  0  0  0  0  0  0  0  0
    8.9265   15.8241   16.9009 C   0  0  0  0  0  0  0  0  0  0  0  0
    9.7130   17.0003   16.7844 C   0  0  0  0  0  0  0  0  0  0  0  0
    9.0770   18.2366   16.7564 C   0  0  0  0  0  0  0  0  0  0  0  0
    7.6319   18.3453   16.8491 C   0  0  0  0  0  0  0  0  0  0  0  0
    6.9252   17.1479   16.9134 C   0  0  0  0  0  0  0  0  0  0  0  0
    6.6952   15.1962   19.4234 C   0  0  0  0  0  0  0  0  0  0  0  0
    6.6350   14.1248   20.3575 C   0  0  0  0  0  0  0  0  0  0  0  0
    6.5988   12.8032   19.8646 C   0  0  0  0  0  0  0  0  0  0  0  0
    6.6354   11.7560   20.7804 F   0  0  0  0  0  0  0  0  0  0  0  0
 18 19  4  0
 18 17  4  0
 19 20  4  0
 20 21  4  0
 21 22  4  0
 22 17  4  0
 17 16  1  0
 16 15  4  0
 16 23  4  0
 15 14  4  0
 23 24  4  0
 24 25  4  0
 25 26  1  0
 25 14  4  0
 14  2  1  0
  2  1  2  0
  2  3  1  0
  3  4  1  0
  5  4  1  1
  5  6  2  0
  5  7  2  0
  5  8  1  0
  8  9  4  0
  8 13  4  0
  9 10  4  0
 10 11  4  0
 11 12  4  0
 12 13  4  0
M  END
$$$$
