
     RDKit          3D

 26 28  0  0  0  0  0  0  0  0999 V2000
    5.4930   10.1000   17.0200 O   0  0  0  0  0  0  0  0  0  0  0  0
    5.1880   10.8410   17.9750 C   0  0  0  0  0  0  0  0  0  0  0  0
    4.0340   10.6460   18.7260 N   0  0  0  0  0  0  0  0  0  0  0  0
    3.1630    9.6980   18.3370 N   0  0  0  0  0  0  0  0  0  0  0  0
    3.3150    8.2070   19.3260 S   0  0  2  0  0  0  0  0  0  0  0  0
    4.7470    7.8360   19.6790 O   0  0  0  0  0  0  0  0  0  0  0  0
    2.6550    7.0550   18.6840 O   0  0  0  0  0  0  0  0  0  0  0  0
    2.6050    8.5190   20.9780 C   0  0  0  0  0  0  0  0  0  0  0  0
    3.2370    9.4760   21.7630 C   0  0  0  0  0  0  0  0  0  0  0  0
    2.6990    9.6700   23.0440 C   0  0  0  0  0  0  0  0  0  0  0  0
    1.5690    8.9490   23.4870 C   0  0  0  0  0  0  0  0  0  0  0  0
    0.9630    7.9700   22.6700 C   0  0  0  0  0  0  0  0  0  0  0  0
    1.5150    7.7810   21.3960 C   0  0  0  0  0  0  0  0  0  0  0  0
    6.0200   11.9590   18.3250 C   0  0  0  0  0  0  0  0  0  0  0  0
    6.5320   12.8150   17.3520 C   0  0  0  0  0  0  0  0  0  0  0  0
    7.3630   13.9110   17.6720 C   0  0  0  0  0  0  0  0  0  0  0  0
    7.8290   14.7710   16.6140 C   0  0  0  0  0  0  0  0  0  0  0  0
    8.3150   14.3220   15.3710 C   0  0  0  0  0  0  0  0  0  0  0  0
    8.7450   15.2090   14.3470 C   0  0  0  0  0  0  0  0  0  0  0  0
    8.6270   16.5960   14.5470 C   0  0  0  0  0  0  0  0  0  0  0  0
    8.0960   17.1300   15.7530 C   0  0  0  0  0  0  0  0  0  0  0  0
    7.7550   16.2210   16.7730 C   0  0  0  0  0  0  0  0  0  0  0  0
    7.6540   14.1860   19.0470 C   0  0  0  0  0  0  0  0  0  0  0  0
    7.1300   13.3380   20.0640 C   0  0  0  0  0  0  0  0  0  0  0  0
    6.3180   12.2570   19.6850 C   0  0  0  0  0  0  0  0  0  0  0  0
    5.7820   11.4190   20.6340 F   0  0  0  0  0  0  0  0  0  0  0  0
 18 19  2  0
 18 17  1  0
 19 20  1  0
 20 21  2  0
 21 22  1  0
 22 17  2  0
 17 16  1  0
 16 15  2  0
 16 23  1  0
 15 14  1  0
 23 24  2  0
 24 25  1  0
 25 26  1  0
 25 14  2  0
 14  2  1  0
  2  1  2  0
  2  3  1  0
  3  4  1  0
  5  4  1  6
  5  6  2  0
  5  7  2  0
  5  8  1  0
  8  9  2  0
  8 13  1  0
  9 10  1  0
 10 11  2  0
 11 12  1  0
 12 13  2  0
M  END
$$$$
