
     RDKit          3D

 27 29  0  0  0  0  0  0  0  0999 V2000
    4.9320    6.6070   23.6520 C   0  0  0  0  0  0  0  0  0  0  0  0
    4.7150    7.9420   24.3620 C   0  0  0  0  0  0  0  0  0  0  0  0
    3.3300    8.2030   24.9330 C   0  0  0  0  0  0  0  0  0  0  0  0
    3.1590    9.5530   25.6570 C   0  0  0  0  0  0  0  0  0  0  0  0
    1.9760   10.2420   25.0540 N   0  0  0  0  0  0  0  0  0  0  0  0
    1.9410   10.9360   23.9270 C   0  0  0  0  0  0  0  0  0  0  0  0
    3.1420   11.1430   22.9870 C   0  0  0  0  0  0  0  0  0  0  0  0
    4.2870   11.7800   23.6060 C   0  0  0  0  0  0  0  0  0  0  0  0
    4.1700   12.9100   24.4350 C   0  0  0  0  0  0  0  0  0  0  0  0
    5.3090   13.4970   24.9970 C   0  0  0  0  0  0  0  0  0  0  0  0
    5.2800   14.5920   25.8270 O   0  0  0  0  0  0  0  0  0  0  0  0
    4.0770   15.3450   25.7950 C   0  0  0  0  0  0  0  0  0  0  0  0
    6.5590   12.9530   24.7150 C   0  0  0  0  0  0  0  0  0  0  0  0
    7.7320   13.4590   25.2550 O   0  0  0  0  0  0  0  0  0  0  0  0
    8.0180   14.8200   24.9360 C   0  0  0  0  0  0  0  0  0  0  0  0
    6.6840   11.8420   23.9160 C   0  0  0  0  0  0  0  0  0  0  0  0
    7.9740   11.4000   23.7170 O   0  0  0  0  0  0  0  0  0  0  0  0
    8.0950   10.3480   22.7450 C   0  0  0  0  0  0  0  0  0  0  0  0
    5.5560   11.2490   23.3520 C   0  0  0  0  0  0  0  0  0  0  0  0
    0.7060   11.3990   23.7100 N   0  0  0  0  0  0  0  0  0  0  0  0
   -0.0510   10.9970   24.7570 C   0  0  0  0  0  0  0  0  0  0  0  0
   -1.3650   11.1490   25.0990 C   0  0  0  0  0  0  0  0  0  0  0  0
   -2.2080   11.8160   24.3020 N   0  0  0  0  0  0  0  0  0  0  0  0
   -1.8120   10.6230   26.2440 N   0  0  0  0  0  0  0  0  0  0  0  0
   -0.9870    9.9150   27.1010 C   0  0  0  0  0  0  0  0  0  0  0  0
    0.3380    9.7320   26.7440 N   0  0  0  0  0  0  0  0  0  0  0  0
    0.7520   10.2880   25.5870 C   0  0  0  0  0  0  0  0  0  0  0  0
 27 21  1  0
 27 26  2  0
  5 27  1  0
 21 22  2  0
 20 21  1  0
 22 24  1  0
 22 23  1  0
  5  6  1  0
  6 20  2  0
  6  7  1  0
 25 24  2  0
 26 25  1  0
  2  1  1  0
  3  2  1  0
  4  3  1  0
  4  5  1  0
  7  8  1  0
  8 19  2  0
  8  9  1  0
 19 16  1  0
  9 10  2  0
 10 11  1  0
 10 13  1  0
 11 12  1  0
 13 14  1  0
 13 16  2  0
 14 15  1  0
 16 17  1  0
 17 18  1  0
M  END
$$$$
