
     RDKit          3D

 20 22  0  0  0  0  0  0  0  0999 V2000
  -10.3540    5.2050  -18.5240 C   0  0  0  0  0  0  0  0  0  0  0  0
  -10.6050    4.1330  -19.5450 C   0  0  0  0  0  0  0  0  0  0  0  0
  -10.5980    4.4460  -20.9100 C   0  0  0  0  0  0  0  0  0  0  0  0
  -10.8100    3.4330  -21.8330 C   0  0  0  0  0  0  0  0  0  0  0  0
  -11.0260    2.1120  -21.3760 C   0  0  0  0  0  0  0  0  0  0  0  0
  -11.2840    0.9640  -22.3590 C   0  0  0  0  0  0  0  0  0  0  0  0
  -11.0590    1.8270  -19.9960 C   0  0  0  0  0  0  0  0  0  0  0  0
  -11.2550    0.3910  -19.5280 C   0  0  0  0  0  0  0  0  0  0  0  0
  -12.1760    0.2780  -18.3990 N   0  0  0  0  0  0  0  0  0  0  0  0
  -11.8800   -0.1700  -17.1790 C   0  0  0  0  0  0  0  0  0  0  0  0
  -10.5120   -0.6400  -16.8370 C   0  0  0  0  0  0  0  0  0  0  0  0
  -10.5830   -1.1210  -15.5130 O   0  0  0  0  0  0  0  0  0  0  0  0
  -12.9680   -0.1490  -16.3660 N   0  0  0  0  0  0  0  0  0  0  0  0
  -13.9510    0.3530  -17.1410 C   0  0  0  0  0  0  0  0  0  0  0  0
  -15.2910    0.6090  -16.9090 C   0  0  0  0  0  0  0  0  0  0  0  0
  -16.1010    1.0980  -17.9220 C   0  0  0  0  0  0  0  0  0  0  0  0
  -15.5730    1.3710  -19.1730 C   0  0  0  0  0  0  0  0  0  0  0  0
  -14.2400    1.1180  -19.4350 C   0  0  0  0  0  0  0  0  0  0  0  0
  -13.4450    0.6160  -18.4100 C   0  0  0  0  0  0  0  0  0  0  0  0
  -10.7980    2.8180  -19.1040 C   0  0  0  0  0  0  0  0  0  0  0  0
  7 20  2  0
  7  5  1  0
  8  7  1  0
 20  2  1  0
  2  3  2  0
  2  1  1  0
  4  3  1  0
  5  4  2  0
  5  6  1  0
  9  8  1  0
 10  9  1  0
  9 19  1  0
 14 15  2  0
 19 14  1  0
 14 13  1  0
 15 16  1  0
 17 16  2  0
 18 17  1  0
 19 18  2  0
 11 12  1  0
 11 10  1  0
 10 13  2  0
M  END
$$$$
