
     RDKit          3D

 20 22  0  0  0  0  0  0  0  0999 V2000
  -15.1809    3.2828  -23.7330 C   0  0  0  0  0  0  0  0  0  0  0  0
  -14.1430    2.6699  -22.8123 C   0  0  0  0  0  0  0  0  0  0  0  0
  -13.4196    1.5164  -23.2011 C   0  0  0  0  0  0  0  0  0  0  0  0
  -13.0379    0.6395  -22.2193 C   0  0  0  0  0  0  0  0  0  0  0  0
  -13.2453    0.9367  -20.8446 C   0  0  0  0  0  0  0  0  0  0  0  0
  -13.0989   -0.1142  -19.7530 C   0  0  0  0  0  0  0  0  0  0  0  0
  -13.7794    2.2145  -20.5040 C   0  0  0  0  0  0  0  0  0  0  0  0
  -14.0721    2.4477  -19.0096 C   0  0  0  0  0  0  0  0  0  0  0  0
  -13.3088    1.6671  -18.1366 N   0  0  0  0  0  0  0  0  0  0  0  0
  -12.1979    1.0160  -18.4369 C   0  0  0  0  0  0  0  0  0  0  0  0
  -11.8545    0.7116  -19.8392 C   0  0  0  0  0  0  0  0  0  0  0  0
  -10.4712    0.8624  -19.9691 O   0  0  0  0  0  0  0  0  0  0  0  0
  -11.3686    0.8683  -17.3845 N   0  0  0  0  0  0  0  0  0  0  0  0
  -12.0753    1.4194  -16.3494 C   0  0  0  0  0  0  0  0  0  0  0  0
  -11.8451    1.4410  -14.9745 C   0  0  0  0  0  0  0  0  0  0  0  0
  -12.9170    1.5531  -14.0835 C   0  0  0  0  0  0  0  0  0  0  0  0
  -14.2011    1.7024  -14.5860 C   0  0  0  0  0  0  0  0  0  0  0  0
  -14.4368    1.7866  -15.9540 C   0  0  0  0  0  0  0  0  0  0  0  0
  -13.3347    1.7164  -16.7923 C   0  0  0  0  0  0  0  0  0  0  0  0
  -14.1968    3.0715  -21.4329 C   0  0  0  0  0  0  0  0  0  0  0  0
  7 20  4  0
  7  5  4  0
  8  7  1  0
 20  2  4  0
  2  3  4  0
  2  1  1  0
  4  3  4  0
  5  4  4  0
  5  6  1  0
  9  8  1  0
 10  9  4  0
  9 19  4  0
 14 15  4  0
 19 14  4  0
 14 13  4  0
 15 16  4  0
 17 16  4  0
 18 17  4  0
 19 18  4  0
 11 12  1  0
 11 10  1  0
 10 13  4  0
M  END
$$$$
