
     RDKit          3D

 32 36  0  0  0  0  0  0  0  0999 V2000
  -10.3950   -5.0770   18.8120 C   0  0  0  0  0  0  0  0  0  0  0  0
  -10.6660   -3.9580   19.8040 C   0  0  0  0  0  0  0  0  0  0  0  0
  -10.6300   -4.2500   21.1390 C   0  0  0  0  0  0  0  0  0  0  0  0
  -10.8340   -3.2530   22.0740 C   0  0  0  0  0  0  0  0  0  0  0  0
  -11.1020   -1.9710   21.6790 C   0  0  0  0  0  0  0  0  0  0  0  0
  -11.3530   -0.9040   22.7150 C   0  0  0  0  0  0  0  0  0  0  0  0
  -11.1950   -1.6720   20.3470 C   0  0  0  0  0  0  0  0  0  0  0  0
  -11.4940   -0.2290   19.9570 C   0  0  0  0  0  0  0  0  0  0  0  0
  -12.4050   -0.1110   18.7960 N   0  0  0  0  0  0  0  0  0  0  0  0
  -12.1200    0.4820   17.5720 C   0  0  0  0  0  0  0  0  0  0  0  0
  -10.8090    0.9430   17.0870 C   0  0  2  0  0  0  0  0  0  0  0  0
  -10.9990    1.8150   16.0150 O   0  0  0  0  0  0  0  0  0  0  0  0
  -10.1230   -0.2860   16.5690 C   0  0  0  0  0  0  0  0  0  0  0  0
   -8.9510   -0.7490   17.1430 C   0  0  0  0  0  0  0  0  0  0  0  0
   -8.3810   -1.9460   16.6980 C   0  0  0  0  0  0  0  0  0  0  0  0
   -8.9760   -2.6780   15.7180 N   0  0  0  0  0  0  0  0  0  0  0  0
  -10.1310   -2.2700   15.1620 C   0  0  0  0  0  0  0  0  0  0  0  0
  -10.7260   -1.0670   15.5800 C   0  0  0  0  0  0  0  0  0  0  0  0
  -13.2080    0.4230   16.7990 N   0  0  0  0  0  0  0  0  0  0  0  0
  -14.1940   -0.1530   17.5320 C   0  0  0  0  0  0  0  0  0  0  0  0
  -15.5230   -0.4460   17.2380 C   0  0  0  0  0  0  0  0  0  0  0  0
  -16.3440   -1.0340   18.1950 C   0  0  0  0  0  0  0  0  0  0  0  0
  -15.8450   -1.3690   19.4430 C   0  0  0  0  0  0  0  0  0  0  0  0
  -16.6760   -2.0810   20.3340 C   0  0  0  0  0  0  0  0  0  0  0  0
  -18.0570   -1.8520   20.5410 C   0  0  0  0  0  0  0  0  0  0  0  0
  -18.5060   -2.7250   21.4960 N   0  0  0  0  0  0  0  0  0  0  0  0
  -17.4010   -3.4940   21.8500 N   0  0  0  0  0  0  0  0  0  0  0  0
  -17.6650   -4.5280   22.8790 C   0  0  0  0  0  0  0  0  0  0  0  0
  -16.3060   -3.1270   21.1830 C   0  0  0  0  0  0  0  0  0  0  0  0
  -14.5010   -1.0750   19.7550 C   0  0  0  0  0  0  0  0  0  0  0  0
  -13.6820   -0.4770   18.7930 C   0  0  0  0  0  0  0  0  0  0  0  0
  -10.9490   -2.6670   19.3920 C   0  0  0  0  0  0  0  0  0  0  0  0
 11 12  1  6
 11 13  1  0
 11 10  1  0
 13 14  2  0
 13 18  1  0
 14 15  1  0
 15 16  2  0
 16 17  1  0
 17 18  2  0
 10 19  2  0
 10  9  1  0
 19 20  1  0
 20 31  2  0
 20 21  1  0
 31  9  1  0
 31 30  1  0
  9  8  1  0
  8  7  1  0
  7  5  2  0
  7 32  1  0
  5  6  1  0
  5  4  1  0
  4  3  2  0
  3  2  1  0
 32  2  2  0
  2  1  1  0
 30 23  2  0
 23 22  1  0
 23 24  1  0
 22 21  2  0
 24 29  2  0
 24 25  1  0
 29 27  1  0
 27 28  1  0
 27 26  1  0
 26 25  2  0
M  END
$$$$
