
     RDKit          3D

 32 36  0  0  0  0  0  0  0  0999 V2000
   -9.8216   -2.8015   20.1973 C   0  0  0  0  0  0  0  0  0  0  0  0
   -9.1588   -2.0421   19.0446 C   0  0  0  0  0  0  0  0  0  0  0  0
   -7.7940   -1.8356   19.1524 C   0  0  0  0  0  0  0  0  0  0  0  0
   -7.0486   -1.4986   18.0359 C   0  0  0  0  0  0  0  0  0  0  0  0
   -7.6360   -1.6681   16.7893 C   0  0  0  0  0  0  0  0  0  0  0  0
   -6.9193   -2.4423   15.7352 C   0  0  0  0  0  0  0  0  0  0  0  0
   -9.0037   -1.4911   16.6916 C   0  0  0  0  0  0  0  0  0  0  0  0
   -9.5467   -0.6539   15.5604 C   0  0  0  0  0  0  0  0  0  0  0  0
   -8.4576   -0.9566   14.3233 N   0  0  0  0  0  0  0  0  0  0  0  0
   -7.3867   -1.7429   14.7617 C   0  0  0  0  0  0  0  0  0  0  0  0
   -5.9616   -1.3840   14.8195 C   0  0  1  0  0  0  0  0  0  0  0  0
   -5.3219   -2.3878   15.4706 O   0  0  0  0  0  0  0  0  0  0  0  0
   -5.5074   -1.3582   13.3826 C   0  0  0  0  0  0  0  0  0  0  0  0
   -4.7397   -2.3583   12.8733 C   0  0  0  0  0  0  0  0  0  0  0  0
   -3.8549   -2.0728   11.8686 C   0  0  0  0  0  0  0  0  0  0  0  0
   -3.8162   -0.8175   11.2534 N   0  0  0  0  0  0  0  0  0  0  0  0
   -4.6858    0.1079   11.6450 C   0  0  0  0  0  0  0  0  0  0  0  0
   -5.6426   -0.1547   12.6291 C   0  0  0  0  0  0  0  0  0  0  0  0
   -7.8625   -2.9820   14.9335 N   0  0  0  0  0  0  0  0  0  0  0  0
   -9.1721   -2.9661   14.4240 C   0  0  0  0  0  0  0  0  0  0  0  0
  -10.3459   -3.1552   15.0740 C   0  0  0  0  0  0  0  0  0  0  0  0
  -11.5202   -2.5484   14.6267 C   0  0  0  0  0  0  0  0  0  0  0  0
  -11.4625   -1.5959   13.6213 C   0  0  0  0  0  0  0  0  0  0  0  0
  -11.9655   -0.2897   13.9354 C   0  0  0  0  0  0  0  0  0  0  0  0
  -11.1241    0.8088   14.3015 C   0  0  0  0  0  0  0  0  0  0  0  0
  -11.4289    1.8319   13.4364 N   0  0  0  0  0  0  0  0  0  0  0  0
  -12.7202    1.5629   12.9983 N   0  0  0  0  0  0  0  0  0  0  0  0
  -13.4731    2.7341   12.5111 C   0  0  0  0  0  0  0  0  0  0  0  0
  -13.0704    0.3046   13.2978 C   0  0  0  0  0  0  0  0  0  0  0  0
  -10.2911   -1.5984   12.7393 C   0  0  0  0  0  0  0  0  0  0  0  0
   -9.0854   -1.9008   13.4125 C   0  0  0  0  0  0  0  0  0  0  0  0
   -9.7669   -1.7919   17.8297 C   0  0  0  0  0  0  0  0  0  0  0  0
 11 12  1  6
 11 13  1  0
 11 10  1  0
 13 14  4  0
 13 18  4  0
 14 15  4  0
 15 16  4  0
 16 17  4  0
 17 18  4  0
 10 19  4  0
 10  9  4  0
 19 20  4  0
 20 31  4  0
 20 21  4  0
 31  9  4  0
 31 30  4  0
  9  8  1  0
  8  7  1  0
  7  5  4  0
  7 32  4  0
  5  6  1  0
  5  4  4  0
  4  3  4  0
  3  2  4  0
 32  2  4  0
  2  1  1  0
 30 23  4  0
 23 22  4  0
 23 24  1  0
 22 21  4  0
 24 29  4  0
 24 25  4  0
 29 27  4  0
 27 28  1  0
 27 26  4  0
 26 25  4  0
M  END
$$$$
