
     RDKit          3D

 15 16  0  0  0  0  0  0  0  0999 V2000
   45.0680   11.1760   20.5080 N   0  0  0  0  0  4  0  0  0  0  0  0
   44.5330   11.9460   19.3830 C   0  0  1  0  0  0  0  0  0  0  0  0
   43.0170   12.1270   19.5160 C   0  0  0  0  0  0  0  0  0  0  0  0
   42.5720   12.5660   20.8650 C   0  0  0  0  0  0  0  0  0  0  0  0
   42.1210   11.7690   21.8810 C   0  0  0  0  0  0  0  0  0  0  0  0
   41.8320   12.5250   22.9840 N   0  0  0  0  0  0  0  0  0  0  0  0
   42.1030   13.8380   22.7040 C   0  0  0  0  0  0  0  0  0  0  0  0
   41.9460   14.9760   23.4990 C   0  0  0  0  0  0  0  0  0  0  0  0
   42.2820   16.1760   22.9490 C   0  0  0  0  0  0  0  0  0  0  0  0
   42.7570   16.2730   21.6390 C   0  0  0  0  0  0  0  0  0  0  0  0
   42.9030   15.1510   20.8420 C   0  0  0  0  0  0  0  0  0  0  0  0
   42.5680   13.9040   21.3770 C   0  0  0  0  0  0  0  0  0  0  0  0
   45.2460   13.2800   19.2760 C   0  0  0  0  0  0  0  0  0  0  0  0
   46.1010   13.5560   20.1200 O   0  0  0  0  0  0  0  0  0  0  0  0
   44.9860   14.0370   18.3290 O   0  0  0  0  0  1  0  0  0  0  0  0
  2  1  1  1
  2 13  1  0
  2  3  1  0
 13 15  1  0
 13 14  2  0
  3  4  1  0
  4  5  2  0
  4 12  1  0
  5  6  1  0
 12  7  2  0
 12 11  1  0
  6  7  1  0
  7  8  1  0
 11 10  2  0
  8  9  2  0
 10  9  1  0
M  CHG  2   1   1  15  -1
M  END
$$$$
