
     RDKit          3D

 15 16  0  0  0  0  0  0  0  0999 V2000
   39.9112   16.9296   24.6982 N   0  0  0  0  0  4  0  0  0  0  0  0
   39.9603   15.9844   23.5738 C   0  0  1  0  0  0  0  0  0  0  0  0
   38.9782   14.8743   23.7027 C   0  0  0  0  0  0  0  0  0  0  0  0
   39.4244   13.5826   23.0621 C   0  0  0  0  0  0  0  0  0  0  0  0
   39.7977   12.4450   23.8270 C   0  0  0  0  0  0  0  0  0  0  0  0
   40.7072   11.7354   23.0825 N   0  0  0  0  0  0  0  0  0  0  0  0
   40.9168   12.3356   21.8794 C   0  0  0  0  0  0  0  0  0  0  0  0
   41.6367   11.8795   20.7752 C   0  0  0  0  0  0  0  0  0  0  0  0
   41.2458   12.3501   19.5399 C   0  0  0  0  0  0  0  0  0  0  0  0
   40.1417   13.2345   19.3917 C   0  0  0  0  0  0  0  0  0  0  0  0
   39.5062   13.7017   20.5159 C   0  0  0  0  0  0  0  0  0  0  0  0
   39.9477   13.3836   21.7894 C   0  0  0  0  0  0  0  0  0  0  0  0
   39.9386   16.6776   22.2563 C   0  0  0  0  0  0  0  0  0  0  0  0
   40.0244   16.0011   21.2144 O   0  0  0  0  0  0  0  0  0  0  0  0
   39.9969   17.9361   22.1857 O   0  0  0  0  0  1  0  0  0  0  0  0
  2  1  1  1
  2 13  1  0
  2  3  1  0
 13 15  1  0
 13 14  2  0
  3  4  1  0
  4  5  4  0
  4 12  4  0
  5  6  4  0
 12  7  4  0
 12 11  4  0
  6  7  4  0
  7  8  4  0
 11 10  4  0
  8  9  4  0
 10  9  4  0
M  CHG  2   1   1  15  -1
M  END
$$$$
