
     RDKit          3D

 40 43  0  0  0  0  0  0  0  0999 V2000
   73.3660   52.0900   14.2320 C   0  0  0  0  0  0  0  0  0  0  0  0
   73.4500   53.4880   13.6230 C   0  0  0  0  0  0  0  0  0  0  0  0
   72.7460   54.5370   14.4880 C   0  0  2  0  0  0  0  0  0  0  0  0
   73.2660   54.4970   15.9240 C   0  0  0  0  0  0  0  0  0  0  0  0
   71.2470   54.2600   14.4620 C   0  0  0  0  0  0  0  0  0  0  0  0
   70.5270   55.2900   15.1970 N   0  0  0  0  0  0  0  0  0  0  0  0
   70.2060   56.5380   14.5320 C   0  0  0  0  0  0  0  0  0  0  0  0
   71.0960   57.6580   15.0680 C   0  0  1  0  0  0  0  0  0  0  0  0
   70.9730   58.7800   14.2420 O   0  0  0  0  0  0  0  0  0  0  0  0
   70.7090   58.0390   16.4980 C   0  0  2  0  0  0  0  0  0  0  0  0
   69.3420   58.7140   16.5670 C   0  0  0  0  0  0  0  0  0  0  0  0
   69.1190   59.1950   18.0010 C   0  0  0  0  0  0  0  0  0  0  0  0
   68.7860   58.1900   19.0970 C   0  0  0  0  0  0  0  0  0  0  0  0
   68.5690   58.6650   20.5310 C   0  0  0  0  0  0  0  0  0  0  0  0
   68.6910   60.1480   20.8660 C   0  0  0  0  0  0  0  0  0  0  0  0
   69.0280   61.1510   19.7680 C   0  0  0  0  0  0  0  0  0  0  0  0
   69.2450   60.6740   18.3350 C   0  0  0  0  0  0  0  0  0  0  0  0
   71.6740   59.0000   16.9790 N   0  0  0  0  0  0  0  0  0  0  0  0
   72.6740   58.6600   17.9560 C   0  0  0  0  0  0  0  0  0  0  0  0
   72.6970   57.5970   18.5020 O   0  0  0  0  0  0  0  0  0  0  0  0
   73.6070   59.6760   18.1920 O   0  0  0  0  0  0  0  0  0  0  0  0
   74.5410   59.5530   19.3480 C   0  0  1  0  0  0  0  0  0  0  0  0
   75.6440   59.9190   18.9820 C   0  0  0  0  0  0  0  0  0  0  0  0
   75.5110   61.4370   18.9370 O   0  0  0  0  0  0  0  0  0  0  0  0
   74.5700   61.7370   20.0740 C   0  0  1  0  0  0  0  0  0  0  0  0
   73.3050   62.6500   19.5360 O   0  0  0  0  0  0  0  0  0  0  0  0
   72.2390   61.9200   19.5730 C   0  0  0  0  0  0  0  0  0  0  0  0
   72.5400   60.8090   20.5480 C   0  0  0  0  0  0  0  0  0  0  0  0
   74.1150   60.6440   20.4750 C   0  0  1  0  0  0  0  0  0  0  0  0
   69.3320   54.6790   16.2460 S   0  0  2  0  0  0  0  0  0  0  0  0
   68.5520   55.7430   16.8730 O   0  0  0  0  0  0  0  0  0  0  0  0
   69.9160   53.9160   17.3520 O   0  0  0  0  0  0  0  0  0  0  0  0
   68.2570   53.6320   15.2710 C   0  0  0  0  0  0  0  0  0  0  0  0
   68.4940   52.1360   15.3180 C   0  0  0  0  0  0  0  0  0  0  0  0
   67.5960   51.2350   14.4970 C   0  0  0  0  0  0  0  0  0  0  0  0
   66.4830   51.8520   13.6660 C   0  0  0  0  0  0  0  0  0  0  0  0
   65.5930   50.9480   12.8380 C   0  0  0  0  0  0  0  0  0  0  0  0
   66.0940   51.0040   11.5390 O   0  0  0  0  0  0  0  0  0  0  0  0
   66.2590   53.3580   13.6190 C   0  0  0  0  0  0  0  0  0  0  0  0
   67.1530   54.2650   14.4410 C   0  0  0  0  0  0  0  0  0  0  0  0
 37 38  1  0
 36 37  1  0
 35 36  2  0
 39 36  1  0
 34 35  1  0
 33 34  2  0
 33 40  1  0
 30 33  1  0
 40 39  2  0
 30 31  2  0
 30 32  2  0
 30  6  1  6
  6  5  1  0
  7  6  1  0
  5  3  1  0
  3  4  1  1
  3  2  1  0
  2  1  1  0
  8  7  1  0
  8  9  1  6
 10  8  1  0
 10 18  1  0
 10 11  1  6
 18 19  1  0
 19 20  2  0
 19 21  1  0
 22 21  1  6
 22 23  1  0
 22 29  1  0
 23 24  1  0
 25 24  1  6
 25 26  1  0
 29 25  1  0
 27 26  1  0
 28 27  1  0
 29 28  1  6
 12 11  1  0
 13 14  2  0
 13 12  1  0
 14 15  1  0
 15 16  2  0
 16 17  1  0
 17 12  2  0
M  END
$$$$
