
     RDKit          3D

 41 44  0  0  0  0  0  0  0  0999 V2000
   73.3343   53.9386   15.8303 C   0  0  0  0  0  0  0  0  0  0  0  0
   73.2995   55.5004   15.7498 C   0  0  0  0  0  0  0  0  0  0  0  0
   72.7358   55.9300   14.3441 C   0  0  1  0  0  0  0  0  0  0  0  0
   73.6290   55.4957   13.1896 C   0  0  0  0  0  0  0  0  0  0  0  0
   73.7417   53.9635   13.1663 C   0  0  0  0  0  0  0  0  0  0  0  0
   71.2680   55.3702   14.1402 C   0  0  0  0  0  0  0  0  0  0  0  0
   70.2217   56.4084   14.2648 N   0  0  0  0  0  0  0  0  0  0  0  0
   70.3142   57.6692   13.5465 C   0  0  0  0  0  0  0  0  0  0  0  0
   71.2549   58.6532   14.3305 C   0  0  1  0  0  0  0  0  0  0  0  0
   71.2558   59.8828   13.7053 O   0  0  0  0  0  0  0  0  0  0  0  0
   70.7576   58.8209   15.8095 C   0  0  2  0  0  0  0  0  0  0  0  0
   69.3664   59.5037   15.8031 C   0  0  0  0  0  0  0  0  0  0  0  0
   69.0929   59.8518   17.3277 C   0  0  0  0  0  0  0  0  0  0  0  0
   68.2587   61.0946   17.6815 C   0  0  0  0  0  0  0  0  0  0  0  0
   68.1177   61.6033   19.1268 C   0  0  0  0  0  0  0  0  0  0  0  0
   68.7763   60.7445   20.2436 C   0  0  0  0  0  0  0  0  0  0  0  0
   69.5815   59.5060   19.8847 C   0  0  0  0  0  0  0  0  0  0  0  0
   69.6878   59.0213   18.4832 C   0  0  0  0  0  0  0  0  0  0  0  0
   71.6612   59.6125   16.4734 N   0  0  0  0  0  0  0  0  0  0  0  0
   72.7837   59.0224   17.2244 C   0  0  0  0  0  0  0  0  0  0  0  0
   73.2371   57.9305   16.9906 O   0  0  0  0  0  0  0  0  0  0  0  0
   73.6101   59.9949   17.8832 O   0  0  0  0  0  0  0  0  0  0  0  0
   74.1759   59.6217   19.1459 C   0  0  1  0  0  0  0  0  0  0  0  0
   75.6788   60.0720   19.0534 C   0  0  0  0  0  0  0  0  0  0  0  0
   75.5457   61.6497   19.1772 O   0  0  0  0  0  0  0  0  0  0  0  0
   74.5564   61.8465   20.0571 C   0  0  1  0  0  0  0  0  0  0  0  0
   73.7155   62.8010   19.7158 O   0  0  0  0  0  0  0  0  0  0  0  0
   72.3103   62.0756   19.4345 C   0  0  0  0  0  0  0  0  0  0  0  0
   72.3917   60.6968   20.1095 C   0  0  0  0  0  0  0  0  0  0  0  0
   73.7054   60.3809   20.1575 C   0  0  1  0  0  0  0  0  0  0  0  0
   68.9974   56.2190   15.4526 S   0  0  2  0  0  0  0  0  0  0  0  0
   68.3890   57.4741   15.7841 O   0  0  0  0  0  0  0  0  0  0  0  0
   69.5150   55.6995   16.7093 O   0  0  0  0  0  0  0  0  0  0  0  0
   67.7772   55.0474   14.7452 C   0  0  0  0  0  0  0  0  0  0  0  0
   67.3098   53.8889   15.6836 C   0  0  0  0  0  0  0  0  0  0  0  0
   66.5114   52.7375   15.0598 C   0  0  0  0  0  0  0  0  0  0  0  0
   66.2955   52.6902   13.5365 C   0  0  0  0  0  0  0  0  0  0  0  0
   65.9470   51.3543   12.8803 C   0  0  0  0  0  0  0  0  0  0  0  0
   65.9541   50.4114   13.9106 O   0  0  0  0  0  0  0  0  0  0  0  0
   66.6941   53.9014   12.6309 C   0  0  0  0  0  0  0  0  0  0  0  0
   67.5068   55.0357   13.2718 C   0  0  0  0  0  0  0  0  0  0  0  0
 38 39  1  0
 37 38  1  0
 36 37  4  0
 40 37  4  0
 35 36  4  0
 34 35  4  0
 34 41  4  0
 31 34  1  0
 41 40  4  0
 26 27  1  6
 28 27  1  0
 31 32  2  0
 31 33  2  0
 31  7  1  6
  7  6  1  0
  8  7  1  0
  3  6  1  6
  3  4  1  0
  3  2  1  0
  4  5  1  0
  2  1  1  0
  9  8  1  0
  9 10  1  6
 11  9  1  0
 11 19  1  0
 11 12  1  6
 19 20  1  0
 20 21  2  0
 20 22  1  0
 23 22  1  6
 23 24  1  0
 23 30  1  0
 24 25  1  0
 26 25  1  0
 30 26  1  0
 29 28  1  0
 30 29  1  6
 13 12  1  0
 14 15  4  0
 14 13  4  0
 15 16  4  0
 16 17  4  0
 17 18  4  0
 18 13  4  0
M  END
$$$$
