
     RDKit          3D

 41 44  0  0  0  0  0  0  0  0999 V2000
   74.4340   54.4020   16.1820 C   0  0  0  0  0  0  0  0  0  0  0  0
   72.9210   54.3060   16.0070 C   0  0  0  0  0  0  0  0  0  0  0  0
   72.5310   54.4970   14.5210 C   0  0  1  0  0  0  0  0  0  0  0  0
   73.1950   53.4450   13.5970 C   0  0  0  0  0  0  0  0  0  0  0  0
   72.8550   51.9960   14.0120 C   0  0  0  0  0  0  0  0  0  0  0  0
   70.9620   54.4050   14.3910 C   0  0  0  0  0  0  0  0  0  0  0  0
   70.3090   55.4600   15.2330 N   0  0  0  0  0  0  0  0  0  0  0  0
   69.9480   56.7480   14.5820 C   0  0  0  0  0  0  0  0  0  0  0  0
   70.8900   57.8450   15.1210 C   0  0  1  0  0  0  0  0  0  0  0  0
   70.7900   58.9800   14.3440 O   0  0  0  0  0  0  0  0  0  0  0  0
   70.5330   58.1830   16.5830 C   0  0  2  0  0  0  0  0  0  0  0  0
   69.1960   58.9140   16.6860 C   0  0  0  0  0  0  0  0  0  0  0  0
   68.9920   59.3430   18.1750 C   0  0  0  0  0  0  0  0  0  0  0  0
   68.6390   58.2880   19.2180 C   0  0  0  0  0  0  0  0  0  0  0  0
   68.4340   58.6930   20.6850 C   0  0  0  0  0  0  0  0  0  0  0  0
   68.5900   60.1600   21.1010 C   0  0  0  0  0  0  0  0  0  0  0  0
   68.9480   61.2200   20.0560 C   0  0  0  0  0  0  0  0  0  0  0  0
   69.1500   60.8180   18.5960 C   0  0  0  0  0  0  0  0  0  0  0  0
   71.5330   59.0990   17.0660 N   0  0  0  0  0  0  0  0  0  0  0  0
   72.5180   58.7070   18.0840 C   0  0  0  0  0  0  0  0  0  0  0  0
   72.5090   57.6450   18.6250 O   0  0  0  0  0  0  0  0  0  0  0  0
   73.4820   59.7070   18.3790 O   0  0  0  0  0  0  0  0  0  0  0  0
   74.2520   59.5560   19.5790 C   0  0  1  0  0  0  0  0  0  0  0  0
   75.7020   60.0910   19.2000 C   0  0  0  0  0  0  0  0  0  0  0  0
   75.4100   61.6560   19.1240 O   0  0  0  0  0  0  0  0  0  0  0  0
   74.5290   61.9030   20.1210 C   0  0  1  0  0  0  0  0  0  0  0  0
   73.5780   62.7030   19.7150 O   0  0  0  0  0  0  0  0  0  0  0  0
   72.1980   61.8530   19.7320 C   0  0  0  0  0  0  0  0  0  0  0  0
   72.5100   60.6200   20.6270 C   0  0  0  0  0  0  0  0  0  0  0  0
   73.8500   60.4170   20.5520 C   0  0  1  0  0  0  0  0  0  0  0  0
   69.1180   54.8400   16.3430 S   0  0  2  0  0  0  0  0  0  0  0  0
   68.4070   55.9150   17.0240 O   0  0  0  0  0  0  0  0  0  0  0  0
   69.7320   54.0090   17.3880 O   0  0  0  0  0  0  0  0  0  0  0  0
   67.9750   53.8290   15.3470 C   0  0  0  0  0  0  0  0  0  0  0  0
   68.2230   52.3220   15.2710 C   0  0  0  0  0  0  0  0  0  0  0  0
   67.2760   51.4630   14.4270 C   0  0  0  0  0  0  0  0  0  0  0  0
   66.1050   52.1340   13.6930 C   0  0  0  0  0  0  0  0  0  0  0  0
   65.1720   51.2710   12.8400 C   0  0  0  0  0  0  0  0  0  0  0  0
   65.7250   51.2780   11.5570 O   0  0  0  0  0  0  0  0  0  0  0  0
   65.8730   53.6500   13.7670 C   0  0  0  0  0  0  0  0  0  0  0  0
   66.8220   54.5120   14.6080 C   0  0  0  0  0  0  0  0  0  0  0  0
 38 39  1  0
 37 38  1  0
 36 37  2  0
 40 37  1  0
 35 36  1  0
 34 35  2  0
 34 41  1  0
 31 34  1  0
 41 40  2  0
 26 27  1  6
 28 27  1  0
 31 32  2  0
 31 33  2  0
 31  7  1  6
  7  6  1  0
  8  7  1  0
  3  6  1  1
  3  4  1  0
  3  2  1  0
  4  5  1  0
  2  1  1  0
  9  8  1  0
  9 10  1  6
 11  9  1  0
 11 19  1  0
 11 12  1  6
 19 20  1  0
 20 21  2  0
 20 22  1  0
 23 22  1  6
 23 24  1  0
 23 30  1  0
 24 25  1  0
 26 25  1  0
 30 26  1  0
 29 28  1  0
 30 29  1  6
 13 12  1  0
 14 15  2  0
 14 13  1  0
 15 16  1  0
 16 17  2  0
 17 18  1  0
 18 13  2  0
M  END
$$$$
