
     RDKit          3D

 40 43  0  0  0  0  0  0  0  0999 V2000
   72.4827   54.6454   14.9273 C   0  0  0  0  0  0  0  0  0  0  0  0
   72.3068   55.9247   13.9907 C   0  0  1  0  0  0  0  0  0  0  0  0
   73.5365   56.1474   13.2121 C   0  0  0  0  0  0  0  0  0  0  0  0
   71.0534   55.6711   13.1156 C   0  0  0  0  0  0  0  0  0  0  0  0
   69.9242   56.5152   13.5304 N   0  0  0  0  0  0  0  0  0  0  0  0
   70.0385   58.0047   13.2327 C   0  0  0  0  0  0  0  0  0  0  0  0
   71.0315   58.6512   14.1012 C   0  0  1  0  0  0  0  0  0  0  0  0
   71.2517   59.9503   13.6646 O   0  0  0  0  0  0  0  0  0  0  0  0
   70.5702   58.6774   15.5766 C   0  0  2  0  0  0  0  0  0  0  0  0
   69.1130   59.3032   15.7014 C   0  0  0  0  0  0  0  0  0  0  0  0
   68.7661   59.5094   17.2440 C   0  0  0  0  0  0  0  0  0  0  0  0
   67.8041   60.6129   17.6466 C   0  0  0  0  0  0  0  0  0  0  0  0
   67.7455   61.0832   19.1222 C   0  0  0  0  0  0  0  0  0  0  0  0
   68.5177   60.3019   20.1874 C   0  0  0  0  0  0  0  0  0  0  0  0
   69.4343   59.1564   19.7744 C   0  0  0  0  0  0  0  0  0  0  0  0
   69.5842   58.7254   18.3194 C   0  0  0  0  0  0  0  0  0  0  0  0
   71.4064   59.5455   16.3219 N   0  0  0  0  0  0  0  0  0  0  0  0
   72.6258   58.9994   16.9958 C   0  0  0  0  0  0  0  0  0  0  0  0
   73.0202   57.8667   16.8745 O   0  0  0  0  0  0  0  0  0  0  0  0
   73.4954   59.9836   17.6336 O   0  0  0  0  0  0  0  0  0  0  0  0
   74.1882   59.6267   18.8342 C   0  0  1  0  0  0  0  0  0  0  0  0
   75.7544   60.0758   18.6676 C   0  0  0  0  0  0  0  0  0  0  0  0
   75.7798   61.3911   18.8661 O   0  0  0  0  0  0  0  0  0  0  0  0
   74.5413   61.6457   19.8260 C   0  0  1  0  0  0  0  0  0  0  0  0
   73.7841   62.5444   19.3414 O   0  0  0  0  0  0  0  0  0  0  0  0
   72.2772   61.9511   19.3601 C   0  0  0  0  0  0  0  0  0  0  0  0
   72.3079   60.7164   19.8784 C   0  0  0  0  0  0  0  0  0  0  0  0
   73.7914   60.2965   19.8589 C   0  0  1  0  0  0  0  0  0  0  0  0
   69.1832   56.0794   15.0443 S   0  0  1  0  0  0  0  0  0  0  0  0
   70.2020   55.6432   16.0102 O   0  0  0  0  0  0  0  0  0  0  0  0
   68.5453   57.2305   15.6367 O   0  0  0  0  0  0  0  0  0  0  0  0
   67.9866   54.6930   14.6304 C   0  0  0  0  0  0  0  0  0  0  0  0
   66.8146   54.9970   13.6854 C   0  0  0  0  0  0  0  0  0  0  0  0
   66.3014   53.9172   12.7349 C   0  0  0  0  0  0  0  0  0  0  0  0
   66.8351   52.4627   12.9080 C   0  0  0  0  0  0  0  0  0  0  0  0
   66.4503   51.4401   11.8953 C   0  0  1  0  0  0  0  0  0  0  0  0
   66.6811   50.0521   12.4313 C   0  0  0  0  0  0  0  0  0  0  0  0
   65.0259   51.5923   11.5983 O   0  0  0  0  0  0  0  0  0  0  0  0
   67.8325   52.1155   13.9964 C   0  0  0  0  0  0  0  0  0  0  0  0
   68.3330   53.2293   14.9180 C   0  0  0  0  0  0  0  0  0  0  0  0
  6  7  1  0
  5  6  1  0
 21 22  1  0
 21 28  1  0
 21 20  1  6
 22 23  1  0
 28 27  1  6
 28 24  1  0
 27 26  1  0
 34 35  4  0
 39 35  4  0
 35 36  1  0
 33 34  4  0
 32 33  4  0
 32 40  4  0
 29 32  1  0
 40 39  4  0
  4  2  1  0
  5  4  1  0
  2  1  1  6
  2  3  1  0
  7  9  1  0
  7  8  1  6
  9 10  1  6
  9 17  1  0
 17 18  1  0
 18 19  2  0
 18 20  1  0
 24 23  1  6
 24 25  1  0
 25 26  1  0
 10 11  1  0
 11 12  4  0
 11 16  4  0
 12 13  4  0
 13 14  4  0
 15 14  4  0
 16 15  4  0
 36 37  1  6
 36 38  1  0
 29  5  1  1
 29 30  2  0
 29 31  2  0
M  END
$$$$
