
     RDKit          3D

 40 43  0  0  0  0  0  0  0  0999 V2000
   73.4710   53.9360   13.0800 C   0  0  0  0  0  0  0  0  0  0  0  0
   72.7030   54.9420   13.9760 C   0  0  2  0  0  0  0  0  0  0  0  0
   73.2230   54.8460   15.4150 C   0  0  0  0  0  0  0  0  0  0  0  0
   71.1680   54.5980   13.9480 C   0  0  0  0  0  0  0  0  0  0  0  0
   70.4130   55.5700   14.7290 N   0  0  0  0  0  0  0  0  0  0  0  0
   70.0900   56.8890   14.0630 C   0  0  0  0  0  0  0  0  0  0  0  0
   70.9640   58.0030   14.6730 C   0  0  1  0  0  0  0  0  0  0  0  0
   70.8330   59.1470   13.9330 O   0  0  0  0  0  0  0  0  0  0  0  0
   70.5540   58.3010   16.1360 C   0  0  2  0  0  0  0  0  0  0  0  0
   69.1560   58.9050   16.2160 C   0  0  0  0  0  0  0  0  0  0  0  0
   68.8870   59.3690   17.7120 C   0  0  0  0  0  0  0  0  0  0  0  0
   68.5170   58.3320   18.7820 C   0  0  0  0  0  0  0  0  0  0  0  0
   68.2600   58.7810   20.2310 C   0  0  0  0  0  0  0  0  0  0  0  0
   68.3730   60.2600   20.6050 C   0  0  0  0  0  0  0  0  0  0  0  0
   68.7440   61.3030   19.5300 C   0  0  0  0  0  0  0  0  0  0  0  0
   69.0000   60.8550   18.0870 C   0  0  0  0  0  0  0  0  0  0  0  0
   71.4660   59.2860   16.6460 N   0  0  0  0  0  0  0  0  0  0  0  0
   72.4760   58.9650   17.6930 C   0  0  0  0  0  0  0  0  0  0  0  0
   72.5190   57.8710   18.2150 O   0  0  0  0  0  0  0  0  0  0  0  0
   73.3750   60.0130   18.0570 O   0  0  0  0  0  0  0  0  0  0  0  0
   74.1910   59.8260   19.2180 C   0  0  1  0  0  0  0  0  0  0  0  0
   75.6840   60.4290   18.8640 C   0  0  0  0  0  0  0  0  0  0  0  0
   75.5350   61.7510   18.9160 O   0  0  0  0  0  0  0  0  0  0  0  0
   74.3850   61.9940   19.9530 C   0  0  1  0  0  0  0  0  0  0  0  0
   73.4540   62.6820   19.4420 O   0  0  0  0  0  0  0  0  0  0  0  0
   72.0440   61.9080   19.6760 C   0  0  0  0  0  0  0  0  0  0  0  0
   72.2960   60.7840   20.3190 C   0  0  0  0  0  0  0  0  0  0  0  0
   73.7850   60.5670   20.2430 C   0  0  1  0  0  0  0  0  0  0  0  0
   69.1780   54.9150   15.7910 S   0  0  2  0  0  0  0  0  0  0  0  0
   68.4360   55.9710   16.4890 O   0  0  0  0  0  0  0  0  0  0  0  0
   69.7650   54.1130   16.8750 O   0  0  0  0  0  0  0  0  0  0  0  0
   68.0370   53.9270   14.7150 C   0  0  0  0  0  0  0  0  0  0  0  0
   66.9380   54.6610   13.9450 C   0  0  0  0  0  0  0  0  0  0  0  0
   65.9890   53.8680   13.0390 C   0  0  0  0  0  0  0  0  0  0  0  0
   66.1520   52.3500   12.9070 C   0  0  0  0  0  0  0  0  0  0  0  0
   65.2230   51.6020   12.0070 C   0  0  2  0  0  0  0  0  0  0  0  0
   64.8850   50.2330   12.6180 C   0  0  0  0  0  0  0  0  0  0  0  0
   65.8730   51.4250   10.7650 O   0  0  0  0  0  0  0  0  0  0  0  0
   67.2570   51.6190   13.6640 C   0  0  0  0  0  0  0  0  0  0  0  0
   68.2130   52.4160   14.5810 C   0  0  0  0  0  0  0  0  0  0  0  0
  6  7  1  0
  5  6  1  0
 21 22  1  0
 21 28  1  0
 21 20  1  6
 22 23  1  0
 28 27  1  6
 28 24  1  0
 27 26  1  0
 34 35  2  0
 39 35  1  0
 35 36  1  0
 33 34  1  0
 32 33  2  0
 32 40  1  0
 29 32  1  0
 40 39  2  0
  4  2  1  0
  5  4  1  0
  2  1  1  6
  2  3  1  0
  7  9  1  0
  7  8  1  6
  9 10  1  6
  9 17  1  0
 17 18  1  0
 18 19  2  0
 18 20  1  0
 24 23  1  6
 24 25  1  0
 25 26  1  0
 10 11  1  0
 11 12  2  0
 11 16  1  0
 12 13  1  0
 13 14  2  0
 15 14  1  0
 16 15  2  0
 36 37  1  1
 36 38  1  0
 29  5  1  6
 29 30  2  0
 29 31  2  0
M  END
$$$$
