
     RDKit          3D

 40 43  0  0  0  0  0  0  0  0999 V2000
   73.2152   54.7223   12.4721 C   0  0  0  0  0  0  0  0  0  0  0  0
   72.6294   55.4598   13.7416 C   0  0  2  0  0  0  0  0  0  0  0  0
   73.1327   54.7843   14.9776 C   0  0  0  0  0  0  0  0  0  0  0  0
   71.1112   55.4151   13.6598 C   0  0  0  0  0  0  0  0  0  0  0  0
   70.5329   56.7888   14.0583 N   0  0  0  0  0  0  0  0  0  0  0  0
   70.7599   57.8917   13.0843 C   0  0  0  0  0  0  0  0  0  0  0  0
   71.3671   59.0799   13.8328 C   0  0  1  0  0  0  0  0  0  0  0  0
   71.0244   60.2484   13.1902 O   0  0  0  0  0  0  0  0  0  0  0  0
   70.8852   59.0501   15.2939 C   0  0  2  0  0  0  0  0  0  0  0  0
   69.4769   59.6749   15.4192 C   0  0  0  0  0  0  0  0  0  0  0  0
   69.2085   60.0413   16.9036 C   0  0  0  0  0  0  0  0  0  0  0  0
   68.3346   61.1828   17.2622 C   0  0  0  0  0  0  0  0  0  0  0  0
   68.1771   61.6985   18.7188 C   0  0  0  0  0  0  0  0  0  0  0  0
   68.8914   60.9153   19.8245 C   0  0  0  0  0  0  0  0  0  0  0  0
   69.8027   59.6499   19.4718 C   0  0  0  0  0  0  0  0  0  0  0  0
   69.9797   59.2177   18.0191 C   0  0  0  0  0  0  0  0  0  0  0  0
   71.7444   59.9500   16.0456 N   0  0  0  0  0  0  0  0  0  0  0  0
   72.9432   59.4473   16.7699 C   0  0  0  0  0  0  0  0  0  0  0  0
   72.9473   58.2296   17.1181 O   0  0  0  0  0  0  0  0  0  0  0  0
   73.6363   60.4256   17.5407 O   0  0  0  0  0  0  0  0  0  0  0  0
   74.2486   60.0325   18.7907 C   0  0  1  0  0  0  0  0  0  0  0  0
   75.8474   60.4934   18.6563 C   0  0  0  0  0  0  0  0  0  0  0  0
   75.7743   61.8104   18.8098 O   0  0  0  0  0  0  0  0  0  0  0  0
   74.6396   62.0339   19.8506 C   0  0  1  0  0  0  0  0  0  0  0  0
   73.9067   62.9719   19.4537 O   0  0  0  0  0  0  0  0  0  0  0  0
   72.3814   62.3810   19.2268 C   0  0  0  0  0  0  0  0  0  0  0  0
   72.3848   61.1272   19.6928 C   0  0  0  0  0  0  0  0  0  0  0  0
   73.8069   60.6962   19.8064 C   0  0  1  0  0  0  0  0  0  0  0  0
   69.0087   56.7614   14.8361 S   0  0  1  0  0  0  0  0  0  0  0  0
   69.1440   56.6057   16.2833 O   0  0  0  0  0  0  0  0  0  0  0  0
   68.2639   58.0189   14.6291 O   0  0  0  0  0  0  0  0  0  0  0  0
   68.0099   55.3464   14.1456 C   0  0  0  0  0  0  0  0  0  0  0  0
   68.1460   53.9576   14.7754 C   0  0  0  0  0  0  0  0  0  0  0  0
   67.7982   52.7575   13.9118 C   0  0  0  0  0  0  0  0  0  0  0  0
   67.3039   52.9427   12.4781 C   0  0  0  0  0  0  0  0  0  0  0  0
   66.8309   51.6961   11.6471 C   0  0  1  0  0  0  0  0  0  0  0  0
   67.4683   50.4792   12.2292 C   0  0  0  0  0  0  0  0  0  0  0  0
   65.4441   51.6069   11.7823 O   0  0  0  0  0  0  0  0  0  0  0  0
   67.0575   54.3710   11.8991 C   0  0  0  0  0  0  0  0  0  0  0  0
   67.3637   55.5282   12.7797 C   0  0  0  0  0  0  0  0  0  0  0  0
  2  1  1  1
  6  7  1  0
  5  6  1  0
 17 18  1  0
 18 19  2  0
 18 20  1  0
 21 22  1  0
 22 23  1  0
 28 27  1  6
 21 28  1  0
 28 24  1  0
 27 26  1  0
 34 35  4  0
 39 35  4  0
 35 36  1  0
 33 34  4  0
 32 33  4  0
 32 40  4  0
 29 32  1  0
 40 39  4  0
  4  2  1  0
  5  4  1  0
  2  3  1  0
  7  9  1  0
  7  8  1  6
  9 10  1  6
  9 17  1  0
 21 20  1  6
 24 23  1  6
 24 25  1  0
 25 26  1  0
 10 11  1  0
 11 12  1  0
 11 16  1  0
 12 13  1  0
 13 14  1  0
 15 14  1  0
 16 15  1  0
 36 37  1  1
 36 38  1  0
 29  5  1  1
 29 30  2  0
 29 31  2  0
M  END
$$$$
