
     RDKit          3D

 40 43  0  0  0  0  0  0  0  0999 V2000
   73.4620   55.1830   15.2770 C   0  0  0  0  0  0  0  0  0  0  0  0
   72.9070   55.2590   13.8240 C   0  0  1  0  0  0  0  0  0  0  0  0
   73.6350   54.2340   12.9480 C   0  0  0  0  0  0  0  0  0  0  0  0
   71.3990   54.9360   13.8050 C   0  0  0  0  0  0  0  0  0  0  0  0
   70.6380   55.9130   14.6350 N   0  0  0  0  0  0  0  0  0  0  0  0
   70.2740   57.2240   14.0070 C   0  0  0  0  0  0  0  0  0  0  0  0
   71.1610   58.3210   14.6120 C   0  0  1  0  0  0  0  0  0  0  0  0
   71.0610   59.4810   13.8660 O   0  0  0  0  0  0  0  0  0  0  0  0
   70.7620   58.5850   16.0700 C   0  0  2  0  0  0  0  0  0  0  0  0
   69.3800   59.2160   16.1810 C   0  0  0  0  0  0  0  0  0  0  0  0
   69.1390   59.6250   17.6580 C   0  0  0  0  0  0  0  0  0  0  0  0
   69.1560   61.1310   18.0410 C   0  0  0  0  0  0  0  0  0  0  0  0
   68.9190   61.5520   19.4990 C   0  0  0  0  0  0  0  0  0  0  0  0
   68.6640   60.4750   20.5780 C   0  0  0  0  0  0  0  0  0  0  0  0
   68.6470   58.9710   20.1910 C   0  0  0  0  0  0  0  0  0  0  0  0
   68.8840   58.5490   18.7290 C   0  0  0  0  0  0  0  0  0  0  0  0
   71.6940   59.5520   16.6140 N   0  0  0  0  0  0  0  0  0  0  0  0
   72.7190   59.1890   17.6190 C   0  0  0  0  0  0  0  0  0  0  0  0
   72.7750   58.1130   18.1130 O   0  0  0  0  0  0  0  0  0  0  0  0
   73.6250   60.2390   17.9540 O   0  0  0  0  0  0  0  0  0  0  0  0
   74.3900   60.1340   19.1580 C   0  0  1  0  0  0  0  0  0  0  0  0
   75.8730   60.7830   18.8190 C   0  0  0  0  0  0  0  0  0  0  0  0
   75.6440   62.1040   18.7790 O   0  0  0  0  0  0  0  0  0  0  0  0
   74.5360   62.3420   19.8570 C   0  0  1  0  0  0  0  0  0  0  0  0
   73.6150   63.0720   19.4080 O   0  0  0  0  0  0  0  0  0  0  0  0
   72.2260   62.2070   19.3740 C   0  0  0  0  0  0  0  0  0  0  0  0
   72.4240   61.1250   20.1050 C   0  0  0  0  0  0  0  0  0  0  0  0
   73.9140   60.9030   20.1320 C   0  0  1  0  0  0  0  0  0  0  0  0
   69.4510   55.2420   15.7020 S   0  0  2  0  0  0  0  0  0  0  0  0
   68.6800   56.2880   16.3660 O   0  0  0  0  0  0  0  0  0  0  0  0
   70.0600   54.4540   16.7700 O   0  0  0  0  0  0  0  0  0  0  0  0
   68.3600   54.1630   14.6660 C   0  0  0  0  0  0  0  0  0  0  0  0
   67.3310   54.7970   13.7220 C   0  0  0  0  0  0  0  0  0  0  0  0
   66.4540   53.8760   12.8750 C   0  0  0  0  0  0  0  0  0  0  0  0
   66.6300   52.3410   12.9890 C   0  0  0  0  0  0  0  0  0  0  0  0
   65.7400   51.4110   12.1150 C   0  0  1  0  0  0  0  0  0  0  0  0
   64.2710   51.7380   12.3930 C   0  0  0  0  0  0  0  0  0  0  0  0
   66.0720   51.6730   10.7960 O   0  0  0  0  0  0  0  0  0  0  0  0
   67.6670   51.7230   13.9220 C   0  0  0  0  0  0  0  0  0  0  0  0
   68.5440   52.6410   14.7720 C   0  0  0  0  0  0  0  0  0  0  0  0
  2  1  1  1
  6  7  1  0
  5  6  1  0
 17 18  1  0
 18 19  2  0
 18 20  1  0
 21 22  1  0
 22 23  1  0
 28 27  1  6
 21 28  1  0
 28 24  1  0
 27 26  1  0
 34 35  2  0
 39 35  1  0
 35 36  1  0
 33 34  1  0
 32 33  2  0
 32 40  1  0
 29 32  1  0
 40 39  2  0
  4  2  1  0
  5  4  1  0
  2  3  1  0
  7  9  1  0
  7  8  1  6
  9 10  1  6
  9 17  1  0
 21 20  1  6
 24 23  1  6
 24 25  1  0
 25 26  1  0
 10 11  1  0
 11 12  1  0
 11 16  1  0
 12 13  1  0
 13 14  1  0
 15 14  1  0
 16 15  1  0
 36 37  1  6
 36 38  1  0
 29  5  1  6
 29 30  2  0
 29 31  2  0
M  END
$$$$
