
     RDKit          3D

 41 44  0  0  0  0  0  0  0  0999 V2000
   73.3247   52.5666   13.9011 C   0  0  0  0  0  0  0  0  0  0  0  0
   73.3421   53.8813   13.0003 C   0  0  0  0  0  0  0  0  0  0  0  0
   72.8292   55.0517   13.7096 C   0  0  2  0  0  0  0  0  0  0  0  0
   73.6319   55.4070   15.0107 C   0  0  0  0  0  0  0  0  0  0  0  0
   71.3738   54.7955   14.0990 C   0  0  0  0  0  0  0  0  0  0  0  0
   70.5859   56.0293   14.3370 N   0  0  0  0  0  0  0  0  0  0  0  0
   70.6613   57.1919   13.3628 C   0  0  0  0  0  0  0  0  0  0  0  0
   71.2583   58.4043   14.1294 C   0  0  1  0  0  0  0  0  0  0  0  0
   70.9053   59.5886   13.5158 O   0  0  0  0  0  0  0  0  0  0  0  0
   70.7645   58.3812   15.5559 C   0  0  2  0  0  0  0  0  0  0  0  0
   69.3680   59.0538   15.6173 C   0  0  0  0  0  0  0  0  0  0  0  0
   69.2594   59.5827   17.0844 C   0  0  0  0  0  0  0  0  0  0  0  0
   69.2900   61.0921   17.3156 C   0  0  0  0  0  0  0  0  0  0  0  0
   69.2839   61.6574   18.7274 C   0  0  0  0  0  0  0  0  0  0  0  0
   69.2813   60.6732   19.9278 C   0  0  0  0  0  0  0  0  0  0  0  0
   69.2457   59.1559   19.6816 C   0  0  0  0  0  0  0  0  0  0  0  0
   69.2301   58.6050   18.2587 C   0  0  0  0  0  0  0  0  0  0  0  0
   71.6456   59.2024   16.3586 N   0  0  0  0  0  0  0  0  0  0  0  0
   72.9771   58.6899   16.7879 C   0  0  0  0  0  0  0  0  0  0  0  0
   73.2308   57.4649   16.9247 O   0  0  0  0  0  0  0  0  0  0  0  0
   73.6992   59.6674   17.5558 O   0  0  0  0  0  0  0  0  0  0  0  0
   74.2842   59.2980   18.8592 C   0  0  1  0  0  0  0  0  0  0  0  0
   75.5456   59.5623   18.7519 C   0  0  0  0  0  0  0  0  0  0  0  0
   75.5498   61.1890   18.9314 O   0  0  0  0  0  0  0  0  0  0  0  0
   74.6512   61.4446   19.8395 C   0  0  1  0  0  0  0  0  0  0  0  0
   73.7022   62.6502   19.4442 O   0  0  0  0  0  0  0  0  0  0  0  0
   72.4225   62.2744   19.7313 C   0  0  0  0  0  0  0  0  0  0  0  0
   72.4577   60.6270   19.6688 C   0  0  0  0  0  0  0  0  0  0  0  0
   73.7093   60.2306   19.9324 C   0  0  1  0  0  0  0  0  0  0  0  0
   69.0368   55.8023   15.0316 S   0  0  2  0  0  0  0  0  0  0  0  0
   68.2217   56.9357   14.7555 O   0  0  0  0  0  0  0  0  0  0  0  0
   69.1218   55.5634   16.4630 O   0  0  0  0  0  0  0  0  0  0  0  0
   68.3713   54.3235   14.2580 C   0  0  0  0  0  0  0  0  0  0  0  0
   66.8702   54.2200   14.0803 C   0  0  0  0  0  0  0  0  0  0  0  0
   66.3024   53.0213   13.3236 C   0  0  0  0  0  0  0  0  0  0  0  0
   67.2930   51.9812   12.8380 C   0  0  0  0  0  0  0  0  0  0  0  0
   66.7510   50.7719   12.1518 C   0  0  1  0  0  0  0  0  0  0  0  0
   67.5728   49.5512   12.6036 C   0  0  0  0  0  0  0  0  0  0  0  0
   65.4696   50.6500   12.6180 O   0  0  0  0  0  0  0  0  0  0  0  0
   68.7857   52.1172   12.9741 C   0  0  0  0  0  0  0  0  0  0  0  0
   69.3895   53.2922   13.7967 C   0  0  0  0  0  0  0  0  0  0  0  0
  8 10  1  0
  7  8  1  0
  8  9  1  6
 10 11  1  6
 10 18  1  0
 18 19  1  0
 19 20  2  0
 19 21  1  0
 22 23  1  0
 22 29  1  0
 22 21  1  6
 23 24  1  0
 29 25  1  0
 25 24  1  6
 25 26  1  0
 28 27  1  0
 27 26  1  0
 11 12  1  0
 35 36  4  0
 40 36  4  0
 36 37  1  0
 34 35  4  0
 33 34  4  0
 33 41  4  0
 30 33  1  0
 41 40  4  0
  5  3  1  0
  6  5  1  0
  6  7  1  0
 29 28  1  6
 12 13  4  0
 12 17  4  0
 13 14  4  0
 14 15  4  0
 16 15  4  0
 17 16  4  0
 37 38  1  1
  2  1  1  0
  3  2  1  0
  3  4  1  1
 37 39  1  0
 30  6  1  6
 30 31  2  0
 30 32  2  0
M  END
$$$$
