
     RDKit          3D

 42 45  0  0  0  0  0  0  0  0999 V2000
   74.5730   54.7750   15.7200 C   0  0  0  0  0  0  0  0  0  0  0  0
   73.0600   54.7440   15.4660 C   0  0  0  0  0  0  0  0  0  0  0  0
   72.6570   54.8530   13.9950 C   0  0  1  0  0  0  0  0  0  0  0  0
   73.3300   53.8220   13.0580 C   0  0  0  0  0  0  0  0  0  0  0  0
   72.9690   52.3950   13.4450 C   0  0  0  0  0  0  0  0  0  0  0  0
   71.1270   54.7100   13.9130 C   0  0  0  0  0  0  0  0  0  0  0  0
   70.4260   55.6860   14.7650 N   0  0  0  0  0  0  0  0  0  0  0  0
   70.0450   56.9890   14.1830 C   0  0  0  0  0  0  0  0  0  0  0  0
   70.9930   58.0610   14.7280 C   0  0  1  0  0  0  0  0  0  0  0  0
   70.9060   59.2160   13.9550 O   0  0  0  0  0  0  0  0  0  0  0  0
   70.6390   58.3880   16.1870 C   0  0  2  0  0  0  0  0  0  0  0  0
   69.3210   59.1630   16.2700 C   0  0  0  0  0  0  0  0  0  0  0  0
   69.0650   59.5440   17.7410 C   0  0  0  0  0  0  0  0  0  0  0  0
   68.7130   58.4740   18.7530 C   0  0  0  0  0  0  0  0  0  0  0  0
   68.4710   58.8290   20.2060 C   0  0  0  0  0  0  0  0  0  0  0  0
   68.5540   60.2710   20.6470 C   0  0  0  0  0  0  0  0  0  0  0  0
   68.8890   61.3440   19.6400 C   0  0  0  0  0  0  0  0  0  0  0  0
   69.1430   60.9870   18.1800 C   0  0  0  0  0  0  0  0  0  0  0  0
   71.6370   59.2850   16.7070 N   0  0  0  0  0  0  0  0  0  0  0  0
   72.6280   58.9180   17.6970 C   0  0  0  0  0  0  0  0  0  0  0  0
   72.6430   57.8660   18.2730 O   0  0  0  0  0  0  0  0  0  0  0  0
   73.5710   59.9290   17.9130 O   0  0  0  0  0  0  0  0  0  0  0  0
   74.5500   59.8200   19.0390 C   0  0  1  0  0  0  0  0  0  0  0  0
   75.6400   60.2820   18.6560 C   0  0  0  0  0  0  0  0  0  0  0  0
   75.5310   61.7910   18.8620 O   0  0  0  0  0  0  0  0  0  0  0  0
   74.5400   61.9360   20.0000 C   0  0  1  0  0  0  0  0  0  0  0  0
   73.3700   62.8550   19.4900 O   0  0  0  0  0  0  0  0  0  0  0  0
   72.1480   62.0260   19.5150 C   0  0  0  0  0  0  0  0  0  0  0  0
   72.4390   60.9510   20.2410 C   0  0  0  0  0  0  0  0  0  0  0  0
   74.0580   60.8050   20.2430 C   0  0  1  0  0  0  0  0  0  0  0  0
   69.2280   55.0420   15.8170 S   0  0  1  0  0  0  0  0  0  0  0  0
   69.8760   54.1820   16.8160 O   0  0  0  0  0  0  0  0  0  0  0  0
   68.4490   56.1090   16.4230 O   0  0  0  0  0  0  0  0  0  0  0  0
   68.1490   54.0570   14.7850 C   0  0  0  0  0  0  0  0  0  0  0  0
   67.0930   54.7970   13.9830 C   0  0  0  0  0  0  0  0  0  0  0  0
   66.1750   53.9750   13.0950 C   0  0  0  0  0  0  0  0  0  0  0  0
   66.3640   52.4880   13.0220 C   0  0  0  0  0  0  0  0  0  0  0  0
   65.4410   51.7190   12.0870 C   0  0  2  0  0  0  0  0  0  0  0  0
   65.2350   50.3100   12.6070 C   0  0  0  0  0  0  0  0  0  0  0  0
   66.1180   51.7350   10.8780 O   0  0  0  0  0  0  0  0  0  0  0  0
   67.4340   51.7650   13.8050 C   0  0  0  0  0  0  0  0  0  0  0  0
   68.3440   52.5640   14.7180 C   0  0  0  0  0  0  0  0  0  0  0  0
  3  4  1  6
  4  5  1  0
  8  9  1  0
  7  8  1  0
 19 20  1  0
 20 21  2  0
 20 22  1  0
 23 24  1  0
 24 25  1  0
 30 29  1  6
 23 30  1  0
 30 26  1  0
 29 28  1  0
 36 37  2  0
 41 37  1  0
 37 38  1  0
 35 36  1  0
 34 35  2  0
 34 42  1  0
 31 34  1  0
 42 41  2  0
  6  3  1  0
  7  6  1  0
  3  2  1  0
  2  1  1  0
  9 11  1  0
  9 10  1  6
 11 12  1  6
 11 19  1  0
 23 22  1  6
 26 25  1  6
 26 27  1  0
 27 28  1  0
 12 13  1  0
 13 14  2  0
 13 18  1  0
 14 15  1  0
 15 16  2  0
 17 16  1  0
 18 17  2  0
 38 39  1  1
 38 40  1  0
 31  7  1  6
 31 32  2  0
 31 33  2  0
M  END
$$$$
