
     RDKit          3D

 42 45  0  0  0  0  0  0  0  0999 V2000
   73.3011   54.4748   15.3194 C   0  0  0  0  0  0  0  0  0  0  0  0
   72.8540   55.9559   15.1224 C   0  0  0  0  0  0  0  0  0  0  0  0
   72.5679   56.4440   13.6998 C   0  0  1  0  0  0  0  0  0  0  0  0
   73.6510   56.0201   12.6205 C   0  0  0  0  0  0  0  0  0  0  0  0
   73.8431   54.5354   12.4814 C   0  0  0  0  0  0  0  0  0  0  0  0
   71.1896   55.8242   13.2753 C   0  0  0  0  0  0  0  0  0  0  0  0
   70.1430   56.8525   13.2700 N   0  0  0  0  0  0  0  0  0  0  0  0
   70.4613   58.2463   12.9888 C   0  0  0  0  0  0  0  0  0  0  0  0
   71.4212   58.8202   14.0591 C   0  0  1  0  0  0  0  0  0  0  0  0
   71.7318   60.1146   13.7976 O   0  0  0  0  0  0  0  0  0  0  0  0
   70.7667   58.7036   15.4460 C   0  0  2  0  0  0  0  0  0  0  0  0
   69.3766   59.3958   15.4110 C   0  0  0  0  0  0  0  0  0  0  0  0
   69.0395   59.8876   16.8768 C   0  0  0  0  0  0  0  0  0  0  0  0
   69.0141   58.8582   17.9997 C   0  0  0  0  0  0  0  0  0  0  0  0
   69.0253   59.3119   19.4464 C   0  0  0  0  0  0  0  0  0  0  0  0
   69.0373   60.7873   19.7591 C   0  0  0  0  0  0  0  0  0  0  0  0
   69.0222   61.7969   18.6444 C   0  0  0  0  0  0  0  0  0  0  0  0
   68.9965   61.3388   17.2019 C   0  0  0  0  0  0  0  0  0  0  0  0
   71.5600   59.4713   16.3444 N   0  0  0  0  0  0  0  0  0  0  0  0
   72.9255   59.1917   16.6312 C   0  0  0  0  0  0  0  0  0  0  0  0
   73.4585   58.1126   16.5086 O   0  0  0  0  0  0  0  0  0  0  0  0
   73.5625   60.2059   17.4355 O   0  0  0  0  0  0  0  0  0  0  0  0
   74.4357   59.8416   18.5768 C   0  0  1  0  0  0  0  0  0  0  0  0
   75.5811   60.1949   18.2983 C   0  0  0  0  0  0  0  0  0  0  0  0
   75.6477   61.6632   18.7353 O   0  0  0  0  0  0  0  0  0  0  0  0
   74.6303   61.7473   19.8957 C   0  0  1  0  0  0  0  0  0  0  0  0
   73.6238   62.9065   19.5192 O   0  0  0  0  0  0  0  0  0  0  0  0
   72.2845   62.2518   19.3261 C   0  0  0  0  0  0  0  0  0  0  0  0
   72.4142   61.0596   19.8419 C   0  0  0  0  0  0  0  0  0  0  0  0
   73.9867   60.6253   19.8883 C   0  0  1  0  0  0  0  0  0  0  0  0
   68.9515   56.7250   14.5341 S   0  0  1  0  0  0  0  0  0  0  0  0
   69.5845   56.2865   15.8065 O   0  0  0  0  0  0  0  0  0  0  0  0
   68.2482   57.9414   14.6884 O   0  0  0  0  0  0  0  0  0  0  0  0
   67.8269   55.4137   14.0078 C   0  0  0  0  0  0  0  0  0  0  0  0
   67.8205   54.1517   14.8270 C   0  0  0  0  0  0  0  0  0  0  0  0
   67.6098   52.8411   14.0825 C   0  0  0  0  0  0  0  0  0  0  0  0
   67.3092   52.8485   12.6424 C   0  0  0  0  0  0  0  0  0  0  0  0
   66.9610   51.5702   12.0230 C   0  0  1  0  0  0  0  0  0  0  0  0
   67.8360   50.4329   12.4880 C   0  0  0  0  0  0  0  0  0  0  0  0
   65.6107   51.3788   12.3284 O   0  0  0  0  0  0  0  0  0  0  0  0
   67.1796   54.1354   11.8550 C   0  0  0  0  0  0  0  0  0  0  0  0
   67.3171   55.4644   12.5987 C   0  0  0  0  0  0  0  0  0  0  0  0
  3  4  1  6
  4  5  1  0
  8  9  1  0
  7  8  1  0
 19 20  1  0
 20 21  2  0
 20 22  1  0
 23 24  1  0
 24 25  1  0
 30 29  1  6
 23 30  1  0
 30 26  1  0
 29 28  1  0
 36 37  4  0
 41 37  4  0
 37 38  1  0
 35 36  4  0
 34 35  4  0
 34 42  4  0
 31 34  1  0
 42 41  4  0
  6  3  1  0
  7  6  1  0
  3  2  1  0
  2  1  1  0
  9 11  1  0
  9 10  1  6
 11 12  1  6
 11 19  1  0
 23 22  1  6
 26 25  1  6
 26 27  1  0
 27 28  1  0
 12 13  1  0
 13 14  4  0
 13 18  4  0
 14 15  4  0
 15 16  4  0
 17 16  4  0
 18 17  4  0
 38 39  1  6
 38 40  1  0
 31  7  1  6
 31 32  2  0
 31 33  2  0
M  END
$$$$
