
     RDKit          3D

 42 45  0  0  0  0  0  0  0  0999 V2000
   73.3839   54.1768   14.7181 C   0  0  0  0  0  0  0  0  0  0  0  0
   73.2968   55.7201   14.9420 C   0  0  0  0  0  0  0  0  0  0  0  0
   72.8774   56.3693   13.5936 C   0  0  1  0  0  0  0  0  0  0  0  0
   73.9806   56.1434   12.4917 C   0  0  0  0  0  0  0  0  0  0  0  0
   74.0301   54.6281   12.1500 C   0  0  0  0  0  0  0  0  0  0  0  0
   71.4789   55.7760   13.1083 C   0  0  0  0  0  0  0  0  0  0  0  0
   70.3703   56.7837   13.3030 N   0  0  0  0  0  0  0  0  0  0  0  0
   70.7013   58.1785   12.9641 C   0  0  0  0  0  0  0  0  0  0  0  0
   71.6171   58.8213   14.0037 C   0  0  1  0  0  0  0  0  0  0  0  0
   71.9458   60.1372   13.7104 O   0  0  0  0  0  0  0  0  0  0  0  0
   70.9400   58.8024   15.4015 C   0  0  2  0  0  0  0  0  0  0  0  0
   69.5499   59.3851   15.3340 C   0  0  0  0  0  0  0  0  0  0  0  0
   69.2212   59.9812   16.7743 C   0  0  0  0  0  0  0  0  0  0  0  0
   70.3842   60.0959   17.8098 C   0  0  0  0  0  0  0  0  0  0  0  0
   70.0446   60.1408   19.3144 C   0  0  0  0  0  0  0  0  0  0  0  0
   68.5858   60.1802   19.7878 C   0  0  0  0  0  0  0  0  0  0  0  0
   67.4385   60.0803   18.7474 C   0  0  0  0  0  0  0  0  0  0  0  0
   67.7835   60.0901   17.2473 C   0  0  0  0  0  0  0  0  0  0  0  0
   71.7480   59.6872   16.2686 N   0  0  0  0  0  0  0  0  0  0  0  0
   72.7402   59.1975   17.2486 C   0  0  0  0  0  0  0  0  0  0  0  0
   72.9146   57.9948   17.3204 O   0  0  0  0  0  0  0  0  0  0  0  0
   73.6984   60.1101   17.6819 O   0  0  0  0  0  0  0  0  0  0  0  0
   74.3807   59.9079   19.0202 C   0  0  1  0  0  0  0  0  0  0  0  0
   75.8752   60.3515   18.8460 C   0  0  0  0  0  0  0  0  0  0  0  0
   75.8062   61.7302   18.8239 O   0  0  0  0  0  0  0  0  0  0  0  0
   74.7318   62.0285   19.8298 C   0  0  1  0  0  0  0  0  0  0  0  0
   73.7312   63.0268   19.3441 O   0  0  0  0  0  0  0  0  0  0  0  0
   72.6148   62.3700   19.1043 C   0  0  0  0  0  0  0  0  0  0  0  0
   72.6342   61.0133   19.9338 C   0  0  0  0  0  0  0  0  0  0  0  0
   73.9465   60.6585   19.9994 C   0  0  1  0  0  0  0  0  0  0  0  0
   69.3189   56.5316   14.6880 S   0  0  1  0  0  0  0  0  0  0  0  0
   70.0359   56.0771   15.9192 O   0  0  0  0  0  0  0  0  0  0  0  0
   68.6033   57.7830   15.0707 O   0  0  0  0  0  0  0  0  0  0  0  0
   68.1073   55.2341   14.0831 C   0  0  0  0  0  0  0  0  0  0  0  0
   67.7844   55.1230   12.6036 C   0  0  0  0  0  0  0  0  0  0  0  0
   67.2704   53.8011   12.0338 C   0  0  0  0  0  0  0  0  0  0  0  0
   66.8901   52.6606   13.0346 C   0  0  0  0  0  0  0  0  0  0  0  0
   66.4273   51.2966   12.4681 C   0  0  1  0  0  0  0  0  0  0  0  0
   67.6800   50.4995   12.0948 C   0  0  0  0  0  0  0  0  0  0  0  0
   65.6931   50.6688   13.4721 O   0  0  0  0  0  0  0  0  0  0  0  0
   67.0452   52.8033   14.5491 C   0  0  0  0  0  0  0  0  0  0  0  0
   67.6551   54.1286   15.0938 C   0  0  0  0  0  0  0  0  0  0  0  0
  3  4  1  6
  4  5  1  0
  8  9  1  0
  7  8  1  0
 19 20  1  0
 20 21  2  0
 20 22  1  0
 23 24  1  0
 24 25  1  0
 30 29  1  6
 23 30  1  0
 30 26  1  0
 29 28  1  0
 36 37  1  0
 41 37  1  0
 37 38  1  0
 35 36  1  0
 34 35  1  0
 34 42  1  0
 31 34  1  0
 42 41  1  0
  6  3  1  0
  7  6  1  0
  3  2  1  0
  2  1  1  0
  9 11  1  0
  9 10  1  6
 11 12  1  6
 11 19  1  0
 23 22  1  6
 26 25  1  6
 26 27  1  0
 27 28  1  0
 12 13  1  0
 13 14  1  0
 13 18  1  0
 14 15  1  0
 15 16  1  0
 17 16  1  0
 18 17  1  0
 38 39  1  1
 38 40  1  0
 31  7  1  6
 31 32  2  0
 31 33  2  0
M  END
$$$$
