
     RDKit          3D

 41 44  0  0  0  0  0  0  0  0999 V2000
   73.4879   53.9944   13.1522 C   0  0  0  0  0  0  0  0  0  0  0  0
   72.8533   54.7114   14.3998 C   0  0  2  0  0  0  0  0  0  0  0  0
   73.2549   53.9835   15.6678 C   0  0  0  0  0  0  0  0  0  0  0  0
   71.2381   54.6730   14.2651 C   0  0  0  0  0  0  0  0  0  0  0  0
   70.6518   55.9802   14.7287 N   0  0  0  0  0  0  0  0  0  0  0  0
   70.7227   57.1216   13.7614 C   0  0  0  0  0  0  0  0  0  0  0  0
   71.3370   58.3181   14.5631 C   0  0  1  0  0  0  0  0  0  0  0  0
   71.0406   59.4954   13.8622 O   0  0  0  0  0  0  0  0  0  0  0  0
   70.7796   58.3763   15.9674 C   0  0  2  0  0  0  0  0  0  0  0  0
   69.3682   59.0024   15.9825 C   0  0  0  0  0  0  0  0  0  0  0  0
   69.1779   59.6595   17.3657 C   0  0  0  0  0  0  0  0  0  0  0  0
   67.7386   59.6805   17.9908 C   0  0  0  0  0  0  0  0  0  0  0  0
   67.5815   59.8516   19.5070 C   0  0  0  0  0  0  0  0  0  0  0  0
   68.8432   60.0084   20.3968 C   0  0  0  0  0  0  0  0  0  0  0  0
   70.2301   60.0996   19.7644 C   0  0  0  0  0  0  0  0  0  0  0  0
   70.3810   60.0336   18.2603 C   0  0  0  0  0  0  0  0  0  0  0  0
   71.6170   59.2115   16.6834 N   0  0  0  0  0  0  0  0  0  0  0  0
   73.0243   58.8495   17.1306 C   0  0  0  0  0  0  0  0  0  0  0  0
   73.3572   57.6806   17.2128 O   0  0  0  0  0  0  0  0  0  0  0  0
   73.6885   59.8739   17.8692 O   0  0  0  0  0  0  0  0  0  0  0  0
   74.2725   59.5401   19.1369 C   0  0  1  0  0  0  0  0  0  0  0  0
   75.8245   59.9242   19.0204 C   0  0  0  0  0  0  0  0  0  0  0  0
   75.8270   61.2723   19.0598 O   0  0  0  0  0  0  0  0  0  0  0  0
   74.6942   61.5933   20.0866 C   0  0  1  0  0  0  0  0  0  0  0  0
   73.9818   62.5292   19.6499 O   0  0  0  0  0  0  0  0  0  0  0  0
   72.4398   62.0212   19.5656 C   0  0  0  0  0  0  0  0  0  0  0  0
   72.3970   60.7804   19.9923 C   0  0  0  0  0  0  0  0  0  0  0  0
   73.8074   60.3014   20.1412 C   0  0  1  0  0  0  0  0  0  0  0  0
   69.1701   55.8130   15.6487 S   0  0  2  0  0  0  0  0  0  0  0  0
   68.3040   56.9642   15.4197 O   0  0  0  0  0  0  0  0  0  0  0  0
   69.4100   55.6291   17.0444 O   0  0  0  0  0  0  0  0  0  0  0  0
   68.4292   54.3012   14.9027 C   0  0  0  0  0  0  0  0  0  0  0  0
   67.6924   53.3842   15.8212 C   0  0  0  0  0  0  0  0  0  0  0  0
   66.8258   52.2522   15.1545 C   0  0  0  0  0  0  0  0  0  0  0  0
   67.0050   52.0567   13.6945 C   0  0  0  0  0  0  0  0  0  0  0  0
   66.6986   50.6747   13.1454 C   0  0  1  0  0  0  0  0  0  0  0  0
   65.3921   50.3241   13.5227 O   0  0  0  0  0  0  0  0  0  0  0  0
   66.6685   50.8459   11.6116 C   0  0  0  0  0  0  0  0  0  0  0  0
   66.6571   49.6196   10.9480 O   0  0  0  0  0  0  0  0  0  0  0  0
   67.6908   53.0221   12.7536 C   0  0  0  0  0  0  0  0  0  0  0  0
   68.5107   54.1355   13.4247 C   0  0  0  0  0  0  0  0  0  0  0  0
  7  9  1  0
  6  7  1  0
  7  8  1  6
  9 10  1  6
  9 17  1  0
 17 18  1  0
 18 19  2  0
 18 20  1  0
 21 22  1  0
 21 28  1  0
 21 20  1  6
 22 23  1  0
 28 24  1  0
 24 23  1  6
 24 25  1  0
 27 26  1  0
 26 25  1  0
 10 11  1  0
 34 35  4  0
 40 35  4  0
 35 36  1  0
 33 34  4  0
 32 33  4  0
 32 41  4  0
 29 32  1  0
 41 40  4  0
  4  2  1  0
  5  4  1  0
  5  6  1  0
 28 27  1  6
 11 12  1  0
 11 16  1  0
 12 13  1  0
 13 14  1  0
 15 14  1  0
 16 15  1  0
 36 38  1  0
 38 39  1  0
  2  1  1  1
  2  3  1  0
 36 37  1  1
 29  5  1  6
 29 30  2  0
 29 31  2  0
M  END
$$$$
