
     RDKit          3D

 41 44  0  0  0  0  0  0  0  0999 V2000
   73.4670   54.6190   16.1900 C   0  0  0  0  0  0  0  0  0  0  0  0
   72.9560   54.6360   14.7530 C   0  0  1  0  0  0  0  0  0  0  0  0
   73.7570   53.5910   13.9230 C   0  0  0  0  0  0  0  0  0  0  0  0
   71.4190   54.2380   14.7100 C   0  0  0  0  0  0  0  0  0  0  0  0
   70.5720   55.2490   15.4150 N   0  0  0  0  0  0  0  0  0  0  0  0
   70.1790   56.4820   14.6610 C   0  0  0  0  0  0  0  0  0  0  0  0
   71.0470   57.6330   15.1580 C   0  0  1  0  0  0  0  0  0  0  0  0
   70.8430   58.7450   14.3600 O   0  0  0  0  0  0  0  0  0  0  0  0
   70.6830   57.9830   16.6240 C   0  0  2  0  0  0  0  0  0  0  0  0
   69.3130   58.6620   16.7130 C   0  0  0  0  0  0  0  0  0  0  0  0
   69.0510   59.0850   18.1800 C   0  0  0  0  0  0  0  0  0  0  0  0
   69.1930   60.5510   18.5890 C   0  0  0  0  0  0  0  0  0  0  0  0
   68.9370   60.9680   20.0260 C   0  0  0  0  0  0  0  0  0  0  0  0
   68.5310   59.9160   21.0790 C   0  0  0  0  0  0  0  0  0  0  0  0
   68.3890   58.4380   20.6700 C   0  0  0  0  0  0  0  0  0  0  0  0
   68.6350   58.0210   19.2410 C   0  0  0  0  0  0  0  0  0  0  0  0
   71.6680   58.9200   17.0700 N   0  0  0  0  0  0  0  0  0  0  0  0
   72.6450   58.6060   18.1680 C   0  0  0  0  0  0  0  0  0  0  0  0
   72.6730   57.5510   18.7470 O   0  0  0  0  0  0  0  0  0  0  0  0
   73.5110   59.6810   18.4450 O   0  0  0  0  0  0  0  0  0  0  0  0
   74.2910   59.6690   19.6530 C   0  0  1  0  0  0  0  0  0  0  0  0
   75.7430   60.2820   19.2080 C   0  0  0  0  0  0  0  0  0  0  0  0
   75.5040   61.5890   19.0650 O   0  0  0  0  0  0  0  0  0  0  0  0
   74.4590   61.9260   20.1600 C   0  0  1  0  0  0  0  0  0  0  0  0
   73.5320   62.6260   19.6820 O   0  0  0  0  0  0  0  0  0  0  0  0
   72.1280   61.8040   19.8460 C   0  0  0  0  0  0  0  0  0  0  0  0
   72.3600   60.7490   20.5880 C   0  0  0  0  0  0  0  0  0  0  0  0
   73.8500   60.5230   20.5720 C   0  0  1  0  0  0  0  0  0  0  0  0
   69.3450   54.5900   16.4430 S   0  0  2  0  0  0  0  0  0  0  0  0
   68.4010   55.5960   16.9370 O   0  0  0  0  0  0  0  0  0  0  0  0
   69.9160   53.9090   17.6090 O   0  0  0  0  0  0  0  0  0  0  0  0
   68.5320   53.3710   15.3490 C   0  0  0  0  0  0  0  0  0  0  0  0
   67.5070   53.8390   14.3600 C   0  0  0  0  0  0  0  0  0  0  0  0
   66.8700   52.7960   13.4370 C   0  0  0  0  0  0  0  0  0  0  0  0
   67.3120   51.3450   13.5790 C   0  0  0  0  0  0  0  0  0  0  0  0
   66.7080   50.3060   12.6340 C   0  0  1  0  0  0  0  0  0  0  0  0
   65.8280   50.9740   11.8000 O   0  0  0  0  0  0  0  0  0  0  0  0
   67.8920   49.8200   11.8330 C   0  0  0  0  0  0  0  0  0  0  0  0
   68.6650   50.9240   11.4490 O   0  0  0  0  0  0  0  0  0  0  0  0
   68.3690   50.8880   14.5630 C   0  0  0  0  0  0  0  0  0  0  0  0
   68.9890   51.9190   15.4800 C   0  0  0  0  0  0  0  0  0  0  0  0
  7  9  1  0
  6  7  1  0
  7  8  1  6
  9 10  1  6
  9 17  1  0
 17 18  1  0
 18 19  2  0
 18 20  1  0
 21 22  1  0
 21 28  1  0
 21 20  1  6
 22 23  1  0
 28 24  1  0
 24 23  1  6
 24 25  1  0
 27 26  1  0
 26 25  1  0
 10 11  1  0
 34 35  2  0
 40 35  1  0
 35 36  1  0
 33 34  1  0
 32 33  2  0
 32 41  1  0
 29 32  1  0
 41 40  2  0
  4  2  1  0
  5  4  1  0
  5  6  1  0
 28 27  1  6
 11 12  1  0
 11 16  1  0
 12 13  1  0
 13 14  1  0
 15 14  1  0
 16 15  1  0
 36 38  1  0
 38 39  1  0
  2  1  1  1
  2  3  1  0
 36 37  1  6
 29  5  1  6
 29 30  2  0
 29 31  2  0
M  END
$$$$
