
     RDKit          3D

 41 44  0  0  0  0  0  0  0  0999 V2000
   73.5604   54.5027   12.8658 C   0  0  0  0  0  0  0  0  0  0  0  0
   72.7708   55.2489   14.0598 C   0  0  2  0  0  0  0  0  0  0  0  0
   73.1929   54.5643   15.3730 C   0  0  0  0  0  0  0  0  0  0  0  0
   71.2869   55.0286   13.8593 C   0  0  0  0  0  0  0  0  0  0  0  0
   70.5378   56.1289   14.4631 N   0  0  0  0  0  0  0  0  0  0  0  0
   70.3587   57.3686   13.7416 C   0  0  0  0  0  0  0  0  0  0  0  0
   71.1028   58.4843   14.4424 C   0  0  1  0  0  0  0  0  0  0  0  0
   70.9283   59.6738   13.7365 O   0  0  0  0  0  0  0  0  0  0  0  0
   70.7004   58.6390   15.8715 C   0  0  2  0  0  0  0  0  0  0  0  0
   69.3814   59.3324   16.0117 C   0  0  0  0  0  0  0  0  0  0  0  0
   69.1039   59.6020   17.4669 C   0  0  0  0  0  0  0  0  0  0  0  0
   69.7626   58.7281   18.5124 C   0  0  0  0  0  0  0  0  0  0  0  0
   69.6522   59.1196   19.9875 C   0  0  0  0  0  0  0  0  0  0  0  0
   68.8681   60.3808   20.3547 C   0  0  0  0  0  0  0  0  0  0  0  0
   68.2115   61.2409   19.3011 C   0  0  0  0  0  0  0  0  0  0  0  0
   68.2647   60.8015   17.8598 C   0  0  0  0  0  0  0  0  0  0  0  0
   71.6829   59.4832   16.5560 N   0  0  0  0  0  0  0  0  0  0  0  0
   72.7735   59.0105   17.3146 C   0  0  0  0  0  0  0  0  0  0  0  0
   72.7775   57.8141   17.6912 O   0  0  0  0  0  0  0  0  0  0  0  0
   73.4963   59.9766   18.0036 O   0  0  0  0  0  0  0  0  0  0  0  0
   74.4100   59.6003   19.1127 C   0  0  1  0  0  0  0  0  0  0  0  0
   75.5444   59.9153   18.8157 C   0  0  0  0  0  0  0  0  0  0  0  0
   75.5870   61.4163   19.0520 O   0  0  0  0  0  0  0  0  0  0  0  0
   74.6475   61.6273   20.2184 C   0  0  1  0  0  0  0  0  0  0  0  0
   73.4681   62.7362   19.7817 O   0  0  0  0  0  0  0  0  0  0  0  0
   72.3579   62.1368   19.6700 C   0  0  0  0  0  0  0  0  0  0  0  0
   72.5313   60.8235   20.4603 C   0  0  0  0  0  0  0  0  0  0  0  0
   74.0997   60.5349   20.4024 C   0  0  1  0  0  0  0  0  0  0  0  0
   69.2560   55.6124   15.4627 S   0  0  2  0  0  0  0  0  0  0  0  0
   68.1557   56.5687   15.4008 O   0  0  0  0  0  0  0  0  0  0  0  0
   69.6236   55.4746   16.8612 O   0  0  0  0  0  0  0  0  0  0  0  0
   68.6918   54.0634   14.7434 C   0  0  0  0  0  0  0  0  0  0  0  0
   69.0680   53.7364   13.2824 C   0  0  0  0  0  0  0  0  0  0  0  0
   68.1490   52.8161   12.5289 C   0  0  0  0  0  0  0  0  0  0  0  0
   67.0758   51.9930   13.3172 C   0  0  0  0  0  0  0  0  0  0  0  0
   66.5287   50.7128   12.7126 C   0  0  1  0  0  0  0  0  0  0  0  0
   65.2945   50.5807   13.2628 O   0  0  0  0  0  0  0  0  0  0  0  0
   66.4352   50.8358   11.1962 C   0  0  0  0  0  0  0  0  0  0  0  0
   66.4441   49.5796   10.6442 O   0  0  0  0  0  0  0  0  0  0  0  0
   66.7617   52.2785   14.7551 C   0  0  0  0  0  0  0  0  0  0  0  0
   67.6673   53.2640   15.5083 C   0  0  0  0  0  0  0  0  0  0  0  0
  2  1  1  1
  6  7  1  0
  5  6  1  0
 17 18  1  0
 18 19  2  0
 18 20  1  0
 21 22  1  0
 22 23  1  0
 28 27  1  6
 21 28  1  0
 28 24  1  0
 27 26  1  0
 34 35  4  0
 40 35  4  0
 35 36  1  0
 33 34  4  0
 32 33  4  0
 32 41  4  0
 29 32  1  0
 41 40  4  0
  4  2  1  0
  5  4  1  0
  2  3  1  0
  7  9  1  0
  7  8  1  6
  9 10  1  6
  9 17  1  0
 21 20  1  6
 24 23  1  6
 24 25  1  0
 25 26  1  0
 10 11  1  0
 11 12  4  0
 11 16  4  0
 12 13  4  0
 13 14  4  0
 15 14  4  0
 16 15  4  0
 36 38  1  0
 36 37  1  6
 38 39  1  0
 29  5  1  1
 29 30  2  0
 29 31  2  0
M  END
$$$$
