
     RDKit          3D

 41 44  0  0  0  0  0  0  0  0999 V2000
   73.3730   54.6920   15.8490 C   0  0  0  0  0  0  0  0  0  0  0  0
   72.8340   54.7320   14.4190 C   0  0  1  0  0  0  0  0  0  0  0  0
   73.6210   53.7480   13.5490 C   0  0  0  0  0  0  0  0  0  0  0  0
   71.3560   54.3540   14.3740 C   0  0  0  0  0  0  0  0  0  0  0  0
   70.5280   55.3300   15.0720 N   0  0  0  0  0  0  0  0  0  0  0  0
   70.1880   56.5740   14.3960 C   0  0  0  0  0  0  0  0  0  0  0  0
   71.0520   57.7130   14.9400 C   0  0  1  0  0  0  0  0  0  0  0  0
   70.8850   58.8500   14.1480 O   0  0  0  0  0  0  0  0  0  0  0  0
   70.6730   58.0620   16.3750 C   0  0  2  0  0  0  0  0  0  0  0  0
   69.3020   58.7340   16.4360 C   0  0  0  0  0  0  0  0  0  0  0  0
   69.0500   59.1420   17.8830 C   0  0  0  0  0  0  0  0  0  0  0  0
   68.6630   58.0980   18.9240 C   0  0  0  0  0  0  0  0  0  0  0  0
   68.4350   58.5300   20.3670 C   0  0  0  0  0  0  0  0  0  0  0  0
   68.5870   59.9920   20.7610 C   0  0  0  0  0  0  0  0  0  0  0  0
   68.9790   61.0270   19.7220 C   0  0  0  0  0  0  0  0  0  0  0  0
   69.2130   60.6000   18.2810 C   0  0  0  0  0  0  0  0  0  0  0  0
   71.6330   59.0240   16.8700 N   0  0  0  0  0  0  0  0  0  0  0  0
   72.6050   58.7120   17.8880 C   0  0  0  0  0  0  0  0  0  0  0  0
   72.6380   57.6600   18.4600 O   0  0  0  0  0  0  0  0  0  0  0  0
   73.5150   59.7430   18.1310 O   0  0  0  0  0  0  0  0  0  0  0  0
   74.4710   59.6320   19.2750 C   0  0  1  0  0  0  0  0  0  0  0  0
   75.5720   60.0080   18.8910 C   0  0  0  0  0  0  0  0  0  0  0  0
   75.4860   61.5330   18.9670 O   0  0  0  0  0  0  0  0  0  0  0  0
   74.5000   61.8030   20.0760 C   0  0  1  0  0  0  0  0  0  0  0  0
   73.2530   62.7090   19.4970 O   0  0  0  0  0  0  0  0  0  0  0  0
   72.1910   61.9740   19.4930 C   0  0  0  0  0  0  0  0  0  0  0  0
   72.4660   60.8480   20.4660 C   0  0  0  0  0  0  0  0  0  0  0  0
   74.0410   60.6930   20.4280 C   0  0  1  0  0  0  0  0  0  0  0  0
   69.3470   54.6620   16.1060 S   0  0  1  0  0  0  0  0  0  0  0  0
   69.9910   53.9710   17.2160 O   0  0  0  0  0  0  0  0  0  0  0  0
   68.4510   55.6690   16.6590 O   0  0  0  0  0  0  0  0  0  0  0  0
   68.4820   53.4710   15.0880 C   0  0  0  0  0  0  0  0  0  0  0  0
   67.4690   53.9520   14.0630 C   0  0  0  0  0  0  0  0  0  0  0  0
   66.7880   52.9120   13.2000 C   0  0  0  0  0  0  0  0  0  0  0  0
   67.1370   51.4410   13.3800 C   0  0  0  0  0  0  0  0  0  0  0  0
   66.4670   50.4100   12.4940 C   0  0  2  0  0  0  0  0  0  0  0  0
   66.5530   50.9010   11.1860 O   0  0  0  0  0  0  0  0  0  0  0  0
   65.0120   50.2290   12.8700 C   0  0  0  0  0  0  0  0  0  0  0  0
   64.4950   49.1720   12.1010 O   0  0  0  0  0  0  0  0  0  0  0  0
   68.1620   50.9770   14.3920 C   0  0  0  0  0  0  0  0  0  0  0  0
   68.8430   52.0110   15.2580 C   0  0  0  0  0  0  0  0  0  0  0  0
  2  1  1  1
  6  7  1  0
  5  6  1  0
 17 18  1  0
 18 19  2  0
 18 20  1  0
 21 22  1  0
 22 23  1  0
 28 27  1  6
 21 28  1  0
 28 24  1  0
 27 26  1  0
 34 35  2  0
 40 35  1  0
 35 36  1  0
 33 34  1  0
 32 33  2  0
 32 41  1  0
 29 32  1  0
 41 40  2  0
  4  2  1  0
  5  4  1  0
  2  3  1  0
  7  9  1  0
  7  8  1  6
  9 10  1  6
  9 17  1  0
 21 20  1  6
 24 23  1  6
 24 25  1  0
 25 26  1  0
 10 11  1  0
 11 12  2  0
 11 16  1  0
 12 13  1  0
 13 14  2  0
 15 14  1  0
 16 15  2  0
 36 38  1  0
 36 37  1  6
 38 39  1  0
 29  5  1  6
 29 30  2  0
 29 31  2  0
M  END
$$$$
