
     RDKit          3D

 42 45  0  0  0  0  0  0  0  0999 V2000
   73.3160   51.9840   14.7690 C   0  0  0  0  0  0  0  0  0  0  0  0
   73.6160   53.3910   14.2150 C   0  0  0  0  0  0  0  0  0  0  0  0
   72.7770   54.4540   14.9530 C   0  0  2  0  0  0  0  0  0  0  0  0
   73.2130   54.5460   16.3930 C   0  0  0  0  0  0  0  0  0  0  0  0
   71.2840   54.0590   14.8750 C   0  0  0  0  0  0  0  0  0  0  0  0
   70.4030   55.0950   15.4970 N   0  0  0  0  0  0  0  0  0  0  0  0
   70.0470   56.2910   14.6530 C   0  0  0  0  0  0  0  0  0  0  0  0
   70.8980   57.4880   15.1410 C   0  0  1  0  0  0  0  0  0  0  0  0
   70.6800   58.5910   14.3140 O   0  0  0  0  0  0  0  0  0  0  0  0
   70.5260   57.8320   16.5800 C   0  0  2  0  0  0  0  0  0  0  0  0
   69.1160   58.4370   16.6720 C   0  0  0  0  0  0  0  0  0  0  0  0
   68.8780   58.9030   18.1350 C   0  0  0  0  0  0  0  0  0  0  0  0
   68.4950   57.8830   19.2110 C   0  0  0  0  0  0  0  0  0  0  0  0
   68.2650   58.3440   20.6560 C   0  0  0  0  0  0  0  0  0  0  0  0
   68.4180   59.8190   21.0220 C   0  0  0  0  0  0  0  0  0  0  0  0
   68.8030   60.8430   19.9430 C   0  0  0  0  0  0  0  0  0  0  0  0
   69.0340   60.3850   18.5050 C   0  0  0  0  0  0  0  0  0  0  0  0
   71.4680   58.8440   17.0360 N   0  0  0  0  0  0  0  0  0  0  0  0
   72.4600   58.5640   18.1020 C   0  0  0  0  0  0  0  0  0  0  0  0
   72.4720   57.5330   18.6850 O   0  0  0  0  0  0  0  0  0  0  0  0
   73.3800   59.6170   18.3810 O   0  0  0  0  0  0  0  0  0  0  0  0
   74.1520   59.5640   19.5930 C   0  0  1  0  0  0  0  0  0  0  0  0
   75.6310   60.1620   19.2050 C   0  0  0  0  0  0  0  0  0  0  0  0
   75.4120   61.4840   19.0730 O   0  0  0  0  0  0  0  0  0  0  0  0
   74.3100   61.8130   20.1230 C   0  0  1  0  0  0  0  0  0  0  0  0
   73.3870   62.4870   19.6110 O   0  0  0  0  0  0  0  0  0  0  0  0
   71.9890   61.6430   19.7450 C   0  0  0  0  0  0  0  0  0  0  0  0
   72.2160   60.6180   20.5310 C   0  0  0  0  0  0  0  0  0  0  0  0
   73.7030   60.4020   20.5270 C   0  0  1  0  0  0  0  0  0  0  0  0
   69.1330   54.4540   16.4940 S   0  0  2  0  0  0  0  0  0  0  0  0
   68.1890   55.4780   16.9550 O   0  0  0  0  0  0  0  0  0  0  0  0
   69.6610   53.8420   17.7290 O   0  0  0  0  0  0  0  0  0  0  0  0
   68.3520   53.2120   15.3860 C   0  0  0  0  0  0  0  0  0  0  0  0
   67.3040   53.6640   14.3850 C   0  0  0  0  0  0  0  0  0  0  0  0
   66.6800   52.6250   13.4490 C   0  0  0  0  0  0  0  0  0  0  0  0
   67.1340   51.1660   13.5460 C   0  0  0  0  0  0  0  0  0  0  0  0
   66.5370   50.1430   12.6100 C   0  0  1  0  0  0  0  0  0  0  0  0
   65.6280   50.7880   11.7700 O   0  0  0  0  0  0  0  0  0  0  0  0
   67.7180   49.5920   11.7940 C   0  0  0  0  0  0  0  0  0  0  0  0
   68.5030   50.6810   11.3380 O   0  0  0  0  0  0  0  0  0  0  0  0
   68.2010   50.7260   14.5370 C   0  0  0  0  0  0  0  0  0  0  0  0
   68.8240   51.7580   15.4710 C   0  0  0  0  0  0  0  0  0  0  0  0
  8 10  1  0
  7  8  1  0
  8  9  1  6
 10 11  1  6
 10 18  1  0
 18 19  1  0
 19 20  2  0
 19 21  1  0
 22 23  1  0
 22 29  1  0
 22 21  1  6
 23 24  1  0
 29 25  1  0
 25 24  1  6
 25 26  1  0
 28 27  1  0
 27 26  1  0
 11 12  1  0
 35 36  2  0
 41 36  1  0
 36 37  1  0
 34 35  1  0
 33 34  2  0
 33 42  1  0
 30 33  1  0
 42 41  2  0
  5  3  1  0
  6  5  1  0
  6  7  1  0
 29 28  1  6
 12 13  2  0
 12 17  1  0
 13 14  1  0
 14 15  2  0
 16 15  1  0
 17 16  2  0
 37 39  1  0
 39 40  1  0
  2  1  1  0
  3  2  1  0
  3  4  1  1
 37 38  1  6
 30  6  1  6
 30 31  2  0
 30 32  2  0
M  END
$$$$
