
     RDKit          3D

 42 45  0  0  0  0  0  0  0  0999 V2000
   72.9322   53.1946   13.5478 C   0  0  0  0  0  0  0  0  0  0  0  0
   73.3265   54.6874   13.1419 C   0  0  0  0  0  0  0  0  0  0  0  0
   72.4294   55.6906   13.8209 C   0  0  2  0  0  0  0  0  0  0  0  0
   73.0794   56.2208   15.0195 C   0  0  0  0  0  0  0  0  0  0  0  0
   71.0900   55.0181   14.2641 C   0  0  0  0  0  0  0  0  0  0  0  0
   69.9265   55.9303   14.2009 N   0  0  0  0  0  0  0  0  0  0  0  0
   70.1510   57.3041   13.6409 C   0  0  0  0  0  0  0  0  0  0  0  0
   71.2483   57.9773   14.4319 C   0  0  1  0  0  0  0  0  0  0  0  0
   71.5406   59.2751   13.9361 O   0  0  0  0  0  0  0  0  0  0  0  0
   70.7815   58.1317   15.9191 C   0  0  2  0  0  0  0  0  0  0  0  0
   69.2987   58.6617   16.0201 C   0  0  0  0  0  0  0  0  0  0  0  0
   69.0875   59.2730   17.4410 C   0  0  0  0  0  0  0  0  0  0  0  0
   70.1192   58.9966   18.5527 C   0  0  0  0  0  0  0  0  0  0  0  0
   69.8096   59.4687   19.9625 C   0  0  0  0  0  0  0  0  0  0  0  0
   68.5224   60.2406   20.2414 C   0  0  0  0  0  0  0  0  0  0  0  0
   67.5888   60.6487   19.1183 C   0  0  0  0  0  0  0  0  0  0  0  0
   67.8603   60.1119   17.7241 C   0  0  0  0  0  0  0  0  0  0  0  0
   71.6153   59.0749   16.5934 N   0  0  0  0  0  0  0  0  0  0  0  0
   72.7356   58.6589   17.4543 C   0  0  0  0  0  0  0  0  0  0  0  0
   72.7467   57.5112   17.9075 O   0  0  0  0  0  0  0  0  0  0  0  0
   73.3798   59.6799   18.2052 O   0  0  0  0  0  0  0  0  0  0  0  0
   73.9856   59.4108   19.4762 C   0  0  1  0  0  0  0  0  0  0  0  0
   75.5701   59.8198   19.3018 C   0  0  0  0  0  0  0  0  0  0  0  0
   75.5378   61.1757   19.3465 O   0  0  0  0  0  0  0  0  0  0  0  0
   74.3646   61.5215   20.3367 C   0  0  1  0  0  0  0  0  0  0  0  0
   73.6167   62.3752   19.8553 O   0  0  0  0  0  0  0  0  0  0  0  0
   72.0996   61.7089   19.7131 C   0  0  0  0  0  0  0  0  0  0  0  0
   72.0994   60.5355   20.3463 C   0  0  0  0  0  0  0  0  0  0  0  0
   73.5232   60.1746   20.4674 C   0  0  1  0  0  0  0  0  0  0  0  0
   68.8771   55.8177   15.5293 S   0  0  2  0  0  0  0  0  0  0  0  0
   67.8551   56.8988   15.5309 O   0  0  0  0  0  0  0  0  0  0  0  0
   69.5490   55.9712   16.7974 O   0  0  0  0  0  0  0  0  0  0  0  0
   68.0934   54.1717   15.3091 C   0  0  0  0  0  0  0  0  0  0  0  0
   69.0067   53.0299   14.9869 C   0  0  0  0  0  0  0  0  0  0  0  0
   68.5029   51.8432   14.0933 C   0  0  0  0  0  0  0  0  0  0  0  0
   67.0228   51.8352   13.7496 C   0  0  0  0  0  0  0  0  0  0  0  0
   66.4150   50.5566   13.1553 C   0  0  1  0  0  0  0  0  0  0  0  0
   65.0803   50.4922   13.5616 O   0  0  0  0  0  0  0  0  0  0  0  0
   66.4654   50.7680   11.6040 C   0  0  0  0  0  0  0  0  0  0  0  0
   66.5003   49.5472   10.9748 O   0  0  0  0  0  0  0  0  0  0  0  0
   66.0476   52.9256   14.1320 C   0  0  0  0  0  0  0  0  0  0  0  0
   66.5864   54.0840   15.0716 C   0  0  0  0  0  0  0  0  0  0  0  0
  8 10  1  0
  7  8  1  0
  8  9  1  6
 10 11  1  6
 10 18  1  0
 18 19  1  0
 19 20  2  0
 19 21  1  0
 22 23  1  0
 22 29  1  0
 22 21  1  6
 23 24  1  0
 29 25  1  0
 25 24  1  6
 25 26  1  0
 28 27  1  0
 27 26  1  0
 11 12  1  0
 35 36  4  0
 41 36  4  0
 36 37  1  0
 34 35  4  0
 33 34  4  0
 33 42  4  0
 30 33  1  0
 42 41  4  0
  5  3  1  0
  6  5  1  0
  6  7  1  0
 29 28  1  6
 12 13  4  0
 12 17  4  0
 13 14  4  0
 14 15  4  0
 16 15  4  0
 17 16  4  0
 37 39  1  0
 39 40  1  0
  2  1  1  0
  3  2  1  0
  3  4  1  1
 37 38  1  1
 30  6  1  6
 30 31  2  0
 30 32  2  0
M  END
$$$$
