
     RDKit          3D

 42 45  0  0  0  0  0  0  0  0999 V2000
   74.0603   52.5552   13.2842 C   0  0  0  0  0  0  0  0  0  0  0  0
   73.6259   54.0377   13.1890 C   0  0  0  0  0  0  0  0  0  0  0  0
   72.7537   54.4165   14.3912 C   0  0  1  0  0  0  0  0  0  0  0  0
   73.3578   55.6658   15.0658 C   0  0  0  0  0  0  0  0  0  0  0  0
   71.3520   54.7534   13.8721 C   0  0  0  0  0  0  0  0  0  0  0  0
   70.8516   56.0512   14.4018 N   0  0  0  0  0  0  0  0  0  0  0  0
   70.8764   57.2521   13.4785 C   0  0  0  0  0  0  0  0  0  0  0  0
   71.4708   58.4332   14.2157 C   0  0  1  0  0  0  0  0  0  0  0  0
   71.0998   59.6203   13.5416 O   0  0  0  0  0  0  0  0  0  0  0  0
   70.8636   58.4985   15.6470 C   0  0  2  0  0  0  0  0  0  0  0  0
   69.4629   59.1686   15.6382 C   0  0  0  0  0  0  0  0  0  0  0  0
   69.1749   59.5832   17.0999 C   0  0  0  0  0  0  0  0  0  0  0  0
   68.1942   60.8046   17.3872 C   0  0  0  0  0  0  0  0  0  0  0  0
   68.1048   61.4427   18.7507 C   0  0  0  0  0  0  0  0  0  0  0  0
   68.9086   60.7740   19.9168 C   0  0  0  0  0  0  0  0  0  0  0  0
   69.8409   59.5306   19.6375 C   0  0  0  0  0  0  0  0  0  0  0  0
   69.8972   58.8833   18.2570 C   0  0  0  0  0  0  0  0  0  0  0  0
   71.7317   59.3757   16.4202 N   0  0  0  0  0  0  0  0  0  0  0  0
   72.8199   58.8047   17.1977 C   0  0  0  0  0  0  0  0  0  0  0  0
   73.2307   57.6812   17.0018 O   0  0  0  0  0  0  0  0  0  0  0  0
   73.7343   59.8318   17.8452 O   0  0  0  0  0  0  0  0  0  0  0  0
   74.3117   59.4942   19.0855 C   0  0  1  0  0  0  0  0  0  0  0  0
   75.8898   59.9193   18.9512 C   0  0  0  0  0  0  0  0  0  0  0  0
   75.8405   61.2344   18.8843 O   0  0  0  0  0  0  0  0  0  0  0  0
   74.7409   61.6445   19.8944 C   0  0  1  0  0  0  0  0  0  0  0  0
   73.9759   62.5208   19.4416 O   0  0  0  0  0  0  0  0  0  0  0  0
   72.4736   61.9413   19.3686 C   0  0  0  0  0  0  0  0  0  0  0  0
   72.4486   60.7603   19.9398 C   0  0  0  0  0  0  0  0  0  0  0  0
   73.8770   60.2871   20.0455 C   0  0  1  0  0  0  0  0  0  0  0  0
   69.5678   55.9594   15.5536 S   0  0  1  0  0  0  0  0  0  0  0  0
   70.0427   55.7755   16.9045 O   0  0  0  0  0  0  0  0  0  0  0  0
   68.7784   57.2189   15.6237 O   0  0  0  0  0  0  0  0  0  0  0  0
   68.5522   54.5461   14.9148 C   0  0  1  0  0  0  0  0  0  0  0  0
   68.6024   54.2977   13.4452 C   0  0  0  0  0  0  0  0  0  0  0  0
   68.1186   52.9018   12.9566 C   0  0  0  0  0  0  0  0  0  0  0  0
   67.6916   51.8469   13.9839 C   0  0  0  0  0  0  0  0  0  0  0  0
   67.6575   50.3706   13.5704 C   0  0  1  0  0  0  0  0  0  0  0  0
   66.3946   50.0601   13.0235 O   0  0  0  0  0  0  0  0  0  0  0  0
   68.7516   50.1732   12.5015 C   0  0  0  0  0  0  0  0  0  0  0  0
   68.1017   50.2625   11.2672 O   0  0  0  0  0  0  0  0  0  0  0  0
   67.4955   52.1691   15.4346 C   0  0  0  0  0  0  0  0  0  0  0  0
   67.9744   53.5961   15.9485 C   0  0  0  0  0  0  0  0  0  0  0  0
  8 10  1  0
  7  8  1  0
  8  9  1  6
 10 11  1  6
 10 18  1  0
 18 19  1  0
 19 20  2  0
 19 21  1  0
 22 23  1  0
 22 29  1  0
 22 21  1  6
 23 24  1  0
 29 25  1  0
 25 24  1  6
 25 26  1  0
 28 27  1  0
 27 26  1  0
 11 12  1  0
 35 36  1  0
 41 36  1  0
 36 37  1  0
 34 35  1  0
 33 34  1  1
 33 42  1  0
 30 33  1  0
 42 41  1  0
  5  3  1  0
  6  5  1  0
  6  7  1  0
 29 28  1  6
 12 13  1  0
 12 17  1  0
 13 14  1  0
 14 15  1  0
 16 15  1  0
 17 16  1  0
 37 39  1  0
 39 40  1  0
  2  1  1  0
  3  2  1  0
  3  4  1  1
 37 38  1  1
 30  6  1  1
 30 31  2  0
 30 32  2  0
M  END
$$$$
