
     RDKit          3D

 43 46  0  0  0  0  0  0  0  0999 V2000
   74.3960   54.2060   16.6300 C   0  0  0  0  0  0  0  0  0  0  0  0
   73.1590   54.7590   15.9110 C   0  0  0  0  0  0  0  0  0  0  0  0
   72.2760   53.6200   15.3390 C   0  0  2  0  0  0  0  0  0  0  0  0
   73.0680   52.6240   14.4360 C   0  0  0  0  0  0  0  0  0  0  0  0
   73.5470   53.3070   13.1380 C   0  0  0  0  0  0  0  0  0  0  0  0
   71.0800   54.2220   14.5050 C   0  0  0  0  0  0  0  0  0  0  0  0
   70.2060   55.1650   15.3030 N   0  0  0  0  0  0  0  0  0  0  0  0
   69.8220   56.4630   14.6220 C   0  0  0  0  0  0  0  0  0  0  0  0
   70.7890   57.5620   15.1240 C   0  0  1  0  0  0  0  0  0  0  0  0
   70.5990   58.6640   14.3280 O   0  0  0  0  0  0  0  0  0  0  0  0
   70.4840   57.8970   16.5890 C   0  0  2  0  0  0  0  0  0  0  0  0
   69.1120   58.5720   16.7050 C   0  0  0  0  0  0  0  0  0  0  0  0
   68.8820   59.0300   18.1630 C   0  0  0  0  0  0  0  0  0  0  0  0
   68.5000   58.0030   19.2210 C   0  0  0  0  0  0  0  0  0  0  0  0
   68.2830   58.4470   20.6660 C   0  0  0  0  0  0  0  0  0  0  0  0
   68.4280   59.9180   21.0390 C   0  0  0  0  0  0  0  0  0  0  0  0
   68.8020   60.9420   19.9770 C   0  0  0  0  0  0  0  0  0  0  0  0
   69.0250   60.5040   18.5310 C   0  0  0  0  0  0  0  0  0  0  0  0
   71.4920   58.8330   17.0270 N   0  0  0  0  0  0  0  0  0  0  0  0
   72.4470   58.4920   18.0820 C   0  0  0  0  0  0  0  0  0  0  0  0
   72.4310   57.4400   18.6550 O   0  0  0  0  0  0  0  0  0  0  0  0
   73.3580   59.5550   18.3280 O   0  0  0  0  0  0  0  0  0  0  0  0
   74.3280   59.4340   19.4640 C   0  0  1  0  0  0  0  0  0  0  0  0
   75.4120   59.7860   19.0370 C   0  0  0  0  0  0  0  0  0  0  0  0
   75.2770   61.3110   18.9610 O   0  0  0  0  0  0  0  0  0  0  0  0
   74.3810   61.6330   20.1140 C   0  0  1  0  0  0  0  0  0  0  0  0
   73.1450   62.5620   19.5770 O   0  0  0  0  0  0  0  0  0  0  0  0
   72.0530   61.8630   19.6440 C   0  0  0  0  0  0  0  0  0  0  0  0
   72.3160   60.7400   20.6230 C   0  0  0  0  0  0  0  0  0  0  0  0
   73.8940   60.5590   20.5530 C   0  0  1  0  0  0  0  0  0  0  0  0
   68.9730   54.5130   16.3780 S   0  0  1  0  0  0  0  0  0  0  0  0
   69.6030   53.8350   17.5210 O   0  0  0  0  0  0  0  0  0  0  0  0
   68.0800   55.5830   16.8460 O   0  0  0  0  0  0  0  0  0  0  0  0
   68.1450   53.3110   15.2940 C   0  0  0  0  0  0  0  0  0  0  0  0
   67.0890   53.7880   14.3350 C   0  0  0  0  0  0  0  0  0  0  0  0
   66.4800   52.7390   13.4170 C   0  0  0  0  0  0  0  0  0  0  0  0
   66.9720   51.2990   13.5180 C   0  0  0  0  0  0  0  0  0  0  0  0
   66.3780   50.2890   12.5590 C   0  0  1  0  0  0  0  0  0  0  0  0
   65.6230   50.9780   11.6450 O   0  0  0  0  0  0  0  0  0  0  0  0
   67.5770   49.7480   11.7730 C   0  0  0  0  0  0  0  0  0  0  0  0
   68.4360   50.8130   11.3920 O   0  0  0  0  0  0  0  0  0  0  0  0
   68.0630   50.8520   14.4700 C   0  0  0  0  0  0  0  0  0  0  0  0
   68.6590   51.8920   15.3930 C   0  0  0  0  0  0  0  0  0  0  0  0
  9 11  1  0
  8  9  1  0
  9 10  1  6
 11 12  1  6
 11 19  1  0
 19 20  1  0
 20 21  2  0
 20 22  1  0
 23 24  1  0
 23 30  1  0
 23 22  1  6
 24 25  1  0
 30 26  1  0
 26 25  1  6
 26 27  1  0
 29 28  1  0
 28 27  1  0
 12 13  1  0
 36 37  2  0
 42 37  1  0
 37 38  1  0
 35 36  1  0
 34 35  2  0
 34 43  1  0
 31 34  1  0
 43 42  2  0
  3  6  1  6
  7  6  1  0
  7  8  1  0
 30 29  1  6
 13 14  2  0
 13 18  1  0
 14 15  1  0
 15 16  2  0
 17 16  1  0
 18 17  2  0
 38 40  1  0
 40 41  1  0
  2  1  1  0
  3  2  1  0
  3  4  1  0
  4  5  1  0
 38 39  1  6
 31  7  1  6
 31 32  2  0
 31 33  2  0
M  END
$$$$
