
     RDKit          3D

 43 46  0  0  0  0  0  0  0  0999 V2000
   72.7115   53.7966   16.0090 C   0  0  0  0  0  0  0  0  0  0  0  0
   72.5623   55.3273   15.9472 C   0  0  0  0  0  0  0  0  0  0  0  0
   72.2956   55.8305   14.4899 C   0  0  1  0  0  0  0  0  0  0  0  0
   73.5427   55.5147   13.5475 C   0  0  0  0  0  0  0  0  0  0  0  0
   73.6097   53.9991   13.2753 C   0  0  0  0  0  0  0  0  0  0  0  0
   70.9689   55.1849   13.9153 C   0  0  0  0  0  0  0  0  0  0  0  0
   69.7543   56.0443   14.0932 N   0  0  0  0  0  0  0  0  0  0  0  0
   69.9065   57.4857   13.7353 C   0  0  0  0  0  0  0  0  0  0  0  0
   71.0232   58.1267   14.5374 C   0  0  1  0  0  0  0  0  0  0  0  0
   71.3345   59.3313   13.9717 O   0  0  0  0  0  0  0  0  0  0  0  0
   70.5692   58.3285   16.0083 C   0  0  2  0  0  0  0  0  0  0  0  0
   69.1107   58.9095   16.0101 C   0  0  0  0  0  0  0  0  0  0  0  0
   68.8467   59.5692   17.3708 C   0  0  0  0  0  0  0  0  0  0  0  0
   67.9383   60.8132   17.4569 C   0  0  0  0  0  0  0  0  0  0  0  0
   67.8130   61.5731   18.7678 C   0  0  0  0  0  0  0  0  0  0  0  0
   68.4505   60.9718   20.0681 C   0  0  0  0  0  0  0  0  0  0  0  0
   69.2926   59.7222   19.9709 C   0  0  0  0  0  0  0  0  0  0  0  0
   69.5057   59.0271   18.6184 C   0  0  0  0  0  0  0  0  0  0  0  0
   71.4319   59.2951   16.5815 N   0  0  0  0  0  0  0  0  0  0  0  0
   72.8391   58.9356   16.9283 C   0  0  0  0  0  0  0  0  0  0  0  0
   73.5104   58.2545   16.1848 O   0  0  0  0  0  0  0  0  0  0  0  0
   73.3724   59.8670   17.8705 O   0  0  0  0  0  0  0  0  0  0  0  0
   74.1102   59.3388   19.0890 C   0  0  1  0  0  0  0  0  0  0  0  0
   75.3075   59.5876   18.8436 C   0  0  0  0  0  0  0  0  0  0  0  0
   75.3623   61.0639   19.0820 O   0  0  0  0  0  0  0  0  0  0  0  0
   74.3632   61.3103   20.2044 C   0  0  1  0  0  0  0  0  0  0  0  0
   73.3533   62.5221   19.7137 O   0  0  0  0  0  0  0  0  0  0  0  0
   72.1803   62.0406   19.5705 C   0  0  0  0  0  0  0  0  0  0  0  0
   72.1873   60.6970   20.2619 C   0  0  0  0  0  0  0  0  0  0  0  0
   73.7050   60.2774   20.3260 C   0  0  1  0  0  0  0  0  0  0  0  0
   68.6394   55.7536   15.4578 S   0  0  2  0  0  0  0  0  0  0  0  0
   67.8787   56.9467   15.7654 O   0  0  0  0  0  0  0  0  0  0  0  0
   69.4064   55.3203   16.6674 O   0  0  0  0  0  0  0  0  0  0  0  0
   67.5998   54.4690   14.7959 C   0  0  0  0  0  0  0  0  0  0  0  0
   67.3316   54.4602   13.3031 C   0  0  0  0  0  0  0  0  0  0  0  0
   67.0934   53.1161   12.6567 C   0  0  0  0  0  0  0  0  0  0  0  0
   66.8964   51.8805   13.5561 C   0  0  0  0  0  0  0  0  0  0  0  0
   66.1600   50.6861   12.9724 C   0  0  2  0  0  0  0  0  0  0  0  0
   66.7432   49.5697   13.5703 O   0  0  0  0  0  0  0  0  0  0  0  0
   66.6665   50.6403   11.4894 C   0  0  0  0  0  0  0  0  0  0  0  0
   66.5473   49.3050   10.9641 O   0  0  0  0  0  0  0  0  0  0  0  0
   67.1301   51.9020   15.0637 C   0  0  0  0  0  0  0  0  0  0  0  0
   67.3856   53.2791   15.6793 C   0  0  0  0  0  0  0  0  0  0  0  0
  9 11  1  0
  8  9  1  0
  9 10  1  6
 11 12  1  6
 11 19  1  0
 19 20  1  0
 20 21  2  0
 20 22  1  0
 23 24  1  0
 23 30  1  0
 23 22  1  6
 24 25  1  0
 30 26  1  0
 26 25  1  6
 26 27  1  0
 29 28  1  0
 28 27  1  0
 12 13  1  0
 36 37  4  0
 42 37  4  0
 37 38  1  0
 35 36  4  0
 34 35  4  0
 34 43  4  0
 31 34  1  0
 43 42  4  0
  3  6  1  1
  7  6  1  0
  7  8  1  0
 30 29  1  6
 13 14  4  0
 13 18  4  0
 14 15  4  0
 15 16  4  0
 17 16  4  0
 18 17  4  0
 38 40  1  0
 40 41  1  0
  2  1  1  0
  3  2  1  0
  3  4  1  0
  4  5  1  0
 38 39  1  6
 31  7  1  1
 31 32  2  0
 31 33  2  0
M  END
$$$$
