
     RDKit          3D

 43 46  0  0  0  0  0  0  0  0999 V2000
   73.3210   52.0200   13.9320 C   0  0  0  0  0  0  0  0  0  0  0  0
   73.6610   53.5060   13.5090 C   0  0  0  0  0  0  0  0  0  0  0  0
   72.9210   54.5520   14.4120 C   0  0  2  0  0  0  0  0  0  0  0  0
   73.2570   54.4000   15.9100 C   0  0  0  0  0  0  0  0  0  0  0  0
   74.7540   54.3290   16.1290 C   0  0  0  0  0  0  0  0  0  0  0  0
   71.3430   54.3530   14.2180 C   0  0  0  0  0  0  0  0  0  0  0  0
   70.5610   55.3660   15.0380 N   0  0  0  0  0  0  0  0  0  0  0  0
   70.1970   56.6320   14.3510 C   0  0  0  0  0  0  0  0  0  0  0  0
   71.1140   57.7730   14.8690 C   0  0  1  0  0  0  0  0  0  0  0  0
   70.9740   58.8870   14.0540 O   0  0  0  0  0  0  0  0  0  0  0  0
   70.7450   58.1190   16.3070 C   0  0  2  0  0  0  0  0  0  0  0  0
   69.3820   58.7940   16.4000 C   0  0  0  0  0  0  0  0  0  0  0  0
   69.1520   59.1900   17.8990 C   0  0  0  0  0  0  0  0  0  0  0  0
   69.3510   60.6280   18.3540 C   0  0  0  0  0  0  0  0  0  0  0  0
   69.1290   61.0000   19.8250 C   0  0  0  0  0  0  0  0  0  0  0  0
   68.7160   59.9300   20.8270 C   0  0  0  0  0  0  0  0  0  0  0  0
   68.5240   58.4980   20.3730 C   0  0  0  0  0  0  0  0  0  0  0  0
   68.7450   58.1240   18.8980 C   0  0  0  0  0  0  0  0  0  0  0  0
   71.7350   59.0830   16.8160 N   0  0  0  0  0  0  0  0  0  0  0  0
   72.7690   58.6950   17.7790 C   0  0  0  0  0  0  0  0  0  0  0  0
   72.7480   57.6460   18.3400 O   0  0  0  0  0  0  0  0  0  0  0  0
   73.8130   59.6590   18.0080 O   0  0  0  0  0  0  0  0  0  0  0  0
   74.6890   59.4790   19.2380 C   0  0  1  0  0  0  0  0  0  0  0  0
   75.8330   59.8980   18.9410 C   0  0  0  0  0  0  0  0  0  0  0  0
   75.6480   61.5340   18.9740 O   0  0  0  0  0  0  0  0  0  0  0  0
   74.8610   61.7920   19.9760 C   0  0  1  0  0  0  0  0  0  0  0  0
   73.6430   62.7030   19.5620 O   0  0  0  0  0  0  0  0  0  0  0  0
   72.6060   61.9090   19.4810 C   0  0  0  0  0  0  0  0  0  0  0  0
   72.9240   60.6530   20.4470 C   0  0  0  0  0  0  0  0  0  0  0  0
   74.2540   60.4580   20.3920 C   0  0  1  0  0  0  0  0  0  0  0  0
   69.3350   54.6880   16.0720 S   0  0  2  0  0  0  0  0  0  0  0  0
   68.4140   55.7080   16.5910 O   0  0  0  0  0  0  0  0  0  0  0  0
   69.8920   54.0800   17.2730 O   0  0  0  0  0  0  0  0  0  0  0  0
   68.4830   53.4520   14.9670 C   0  0  0  0  0  0  0  0  0  0  0  0
   68.8610   51.9860   15.0620 C   0  0  0  0  0  0  0  0  0  0  0  0
   68.1840   50.9740   14.1390 C   0  0  0  0  0  0  0  0  0  0  0  0
   67.1510   51.4500   13.1330 C   0  0  0  0  0  0  0  0  0  0  0  0
   66.4840   50.4510   12.2100 C   0  0  2  0  0  0  0  0  0  0  0  0
   66.3920   51.0280   10.9540 O   0  0  0  0  0  0  0  0  0  0  0  0
   65.0810   50.1030   12.7270 C   0  0  0  0  0  0  0  0  0  0  0  0
   64.7120   48.8420   12.2290 O   0  0  0  0  0  0  0  0  0  0  0  0
   66.7850   52.9250   13.0250 C   0  0  0  0  0  0  0  0  0  0  0  0
   67.4590   53.9390   13.9450 C   0  0  0  0  0  0  0  0  0  0  0  0
  3  4  1  1
  4  5  1  0
  8  9  1  0
  7  8  1  0
 19 20  1  0
 20 21  2  0
 20 22  1  0
 23 24  1  0
 24 25  1  0
 30 29  1  6
 23 30  1  0
 30 26  1  0
 29 28  1  0
 36 37  2  0
 42 37  1  0
 37 38  1  0
 35 36  1  0
 34 35  2  0
 34 43  1  0
 31 34  1  0
 43 42  2  0
  6  3  1  0
  7  6  1  0
  3  2  1  0
  2  1  1  0
  9 11  1  0
  9 10  1  6
 11 12  1  6
 11 19  1  0
 23 22  1  6
 26 25  1  6
 26 27  1  0
 27 28  1  0
 12 13  1  0
 13 14  2  0
 13 18  1  0
 14 15  1  0
 15 16  2  0
 17 16  1  0
 18 17  2  0
 38 40  1  0
 40 41  1  0
 38 39  1  6
 31  7  1  6
 31 32  2  0
 31 33  2  0
M  END
$$$$
