
     RDKit          3D

 43 46  0  0  0  0  0  0  0  0999 V2000
   74.1682   53.9559   13.2192 C   0  0  0  0  0  0  0  0  0  0  0  0
   74.1021   55.4426   13.5790 C   0  0  0  0  0  0  0  0  0  0  0  0
   72.7526   55.7258   14.4032 C   0  0  2  0  0  0  0  0  0  0  0  0
   72.6458   54.8465   15.7459 C   0  0  0  0  0  0  0  0  0  0  0  0
   73.3915   53.6147   15.5706 C   0  0  0  0  0  0  0  0  0  0  0  0
   71.4810   55.3419   13.4493 C   0  0  0  0  0  0  0  0  0  0  0  0
   70.3313   56.1964   13.7833 N   0  0  0  0  0  0  0  0  0  0  0  0
   70.4481   57.6400   13.6147 C   0  0  0  0  0  0  0  0  0  0  0  0
   71.4991   58.1717   14.5973 C   0  0  1  0  0  0  0  0  0  0  0  0
   71.8903   59.5233   14.2687 O   0  0  0  0  0  0  0  0  0  0  0  0
   70.9452   58.1819   16.0178 C   0  0  2  0  0  0  0  0  0  0  0  0
   69.4600   58.6313   16.0712 C   0  0  0  0  0  0  0  0  0  0  0  0
   69.2971   59.3591   17.5021 C   0  0  0  0  0  0  0  0  0  0  0  0
   69.2906   58.5327   18.7538 C   0  0  0  0  0  0  0  0  0  0  0  0
   69.3056   59.2275   20.0943 C   0  0  0  0  0  0  0  0  0  0  0  0
   69.2970   60.7418   20.1531 C   0  0  0  0  0  0  0  0  0  0  0  0
   69.2946   61.5599   18.9091 C   0  0  0  0  0  0  0  0  0  0  0  0
   69.2539   60.8581   17.5489 C   0  0  0  0  0  0  0  0  0  0  0  0
   71.7334   59.1210   16.8455 N   0  0  0  0  0  0  0  0  0  0  0  0
   72.9687   58.7092   17.5872 C   0  0  0  0  0  0  0  0  0  0  0  0
   73.0151   57.5648   18.0089 O   0  0  0  0  0  0  0  0  0  0  0  0
   73.7831   59.7173   18.0704 O   0  0  0  0  0  0  0  0  0  0  0  0
   74.5919   59.4925   19.3213 C   0  0  1  0  0  0  0  0  0  0  0  0
   75.7704   59.8064   19.0606 C   0  0  0  0  0  0  0  0  0  0  0  0
   75.7105   61.4436   19.1199 O   0  0  0  0  0  0  0  0  0  0  0  0
   74.9572   61.7560   20.1223 C   0  0  1  0  0  0  0  0  0  0  0  0
   73.8577   62.8163   19.7100 O   0  0  0  0  0  0  0  0  0  0  0  0
   72.7600   62.1320   19.6301 C   0  0  0  0  0  0  0  0  0  0  0  0
   72.9289   60.8004   20.5045 C   0  0  0  0  0  0  0  0  0  0  0  0
   74.2182   60.4734   20.4696 C   0  0  1  0  0  0  0  0  0  0  0  0
   69.3250   55.6598   15.1153 S   0  0  1  0  0  0  0  0  0  0  0  0
   70.1810   55.2107   16.2511 O   0  0  0  0  0  0  0  0  0  0  0  0
   68.5297   56.7208   15.7089 O   0  0  0  0  0  0  0  0  0  0  0  0
   68.3342   54.2745   14.4012 C   0  0  0  0  0  0  0  0  0  0  0  0
   67.7631   53.2211   15.3170 C   0  0  0  0  0  0  0  0  0  0  0  0
   67.0404   51.9826   14.6957 C   0  0  0  0  0  0  0  0  0  0  0  0
   66.9259   51.8694   13.1875 C   0  0  0  0  0  0  0  0  0  0  0  0
   66.6059   50.5427   12.5725 C   0  0  1  0  0  0  0  0  0  0  0  0
   65.3918   50.0886   13.1648 O   0  0  0  0  0  0  0  0  0  0  0  0
   66.4225   50.6622   11.0354 C   0  0  0  0  0  0  0  0  0  0  0  0
   66.4896   49.4404   10.4834 O   0  0  0  0  0  0  0  0  0  0  0  0
   67.3829   53.0104   12.2627 C   0  0  0  0  0  0  0  0  0  0  0  0
   68.1312   54.2169   12.9110 C   0  0  0  0  0  0  0  0  0  0  0  0
  3  4  1  1
  4  5  1  0
  8  9  1  0
  7  8  1  0
 19 20  1  0
 20 21  2  0
 20 22  1  0
 23 24  1  0
 24 25  1  0
 30 29  1  6
 23 30  1  0
 30 26  1  0
 29 28  1  0
 36 37  4  0
 42 37  4  0
 37 38  1  0
 35 36  4  0
 34 35  4  0
 34 43  4  0
 31 34  1  0
 43 42  4  0
  6  3  1  0
  7  6  1  0
  3  2  1  0
  2  1  1  0
  9 11  1  0
  9 10  1  6
 11 12  1  6
 11 19  1  0
 23 22  1  6
 26 25  1  6
 26 27  1  0
 27 28  1  0
 12 13  1  0
 13 14  4  0
 13 18  4  0
 14 15  4  0
 15 16  4  0
 17 16  4  0
 18 17  4  0
 38 40  1  0
 40 41  1  0
 38 39  1  6
 31  7  1  1
 31 32  2  0
 31 33  2  0
M  END
$$$$
