
     RDKit          3D

 33 36  0  0  0  0  0  0  0  0999 V2000
    1.2862   73.0681  -28.2314 C   0  0  0  0  0  0  0  0  0  0  0  0
    1.2294   73.8937  -29.6252 C   0  0  0  0  0  0  0  0  0  0  0  0
   -0.1258   73.5481  -30.2600 C   0  0  0  0  0  0  0  0  0  0  0  0
   -0.8041   72.5792  -29.9093 O   0  0  0  0  0  0  0  0  0  0  0  0
   -0.9663   74.6068  -30.7756 N   0  0  0  0  0  0  0  0  0  0  0  0
   -1.9223   74.7160  -31.9165 C   0  0  0  0  0  0  0  0  0  0  0  0
   -1.7965   76.2449  -31.8545 C   0  0  2  0  0  0  0  0  0  0  0  0
   -0.8250   76.8837  -32.7274 N   0  0  0  0  0  0  0  0  0  0  0  0
    0.3806   76.1995  -33.2066 C   0  0  0  0  0  0  0  0  0  0  0  0
    1.4078   76.5443  -32.6354 O   0  0  0  0  0  0  0  0  0  0  0  0
    0.4795   75.9063  -34.7439 C   0  0  0  0  0  0  0  0  0  0  0  0
    0.4358   77.0853  -35.4765 O   0  0  0  0  0  0  0  0  0  0  0  0
   -0.7428   77.2556  -36.2056 C   0  0  0  0  0  0  0  0  0  0  0  0
   -1.2430   78.5517  -36.4420 C   0  0  0  0  0  0  0  0  0  0  0  0
   -2.6133   78.7271  -36.5319 C   0  0  0  0  0  0  0  0  0  0  0  0
   -3.4324   77.6272  -36.5748 C   0  0  0  0  0  0  0  0  0  0  0  0
   -5.3622   77.8421  -36.5345 Br  0  0  0  0  0  0  0  0  0  0  0  0
   -2.8947   76.3247  -36.5534 C   0  0  0  0  0  0  0  0  0  0  0  0
   -1.5111   76.1807  -36.4049 C   0  0  0  0  0  0  0  0  0  0  0  0
   -0.9394   74.8094  -36.7990 C   0  0  0  0  0  0  0  0  0  0  0  0
    0.1432   74.5077  -36.3079 O   0  0  0  0  0  0  0  0  0  0  0  0
   -1.7986   73.7402  -37.1402 N   0  0  0  0  0  0  0  0  0  0  0  0
   -2.0407   72.5666  -36.3372 C   0  0  0  0  0  0  0  0  0  0  0  0
   -2.0367   71.4196  -37.3884 C   0  0  0  0  0  0  0  0  0  0  0  0
   -2.3428   71.9027  -38.5728 C   0  0  0  0  0  0  0  0  0  0  0  0
   -2.4838   71.1305  -39.8748 C   0  0  0  0  0  0  0  0  0  0  0  0
   -3.7129   70.5300  -40.1722 C   0  0  0  0  0  0  0  0  0  0  0  0
   -3.9959   70.2472  -41.5071 C   0  0  0  0  0  0  0  0  0  0  0  0
   -3.0397   70.4590  -42.4558 C   0  0  0  0  0  0  0  0  0  0  0  0
   -1.8111   70.8867  -42.1523 C   0  0  0  0  0  0  0  0  0  0  0  0
   -1.5029   71.2338  -40.8379 C   0  0  0  0  0  0  0  0  0  0  0  0
   -2.1945   73.4165  -38.5236 C   0  0  0  0  0  0  0  0  0  0  0  0
   -0.9972   76.0931  -30.6153 C   0  0  0  0  0  0  0  0  0  0  0  0
  1  2  1  0
  2  3  1  0
  3  4  2  0
  3  5  1  0
  5  6  1  0
  5 33  1  0
  6  7  1  0
  7 33  1  0
  7  8  1  6
  8  9  1  0
  9 10  2  0
  9 11  1  0
 11 12  1  0
 12 13  1  0
 13 14  4  0
 13 19  4  0
 14 15  4  0
 15 16  4  0
 16 17  1  0
 16 18  4  0
 18 19  4  0
 19 20  1  0
 20 21  2  0
 20 22  1  0
 22 23  1  0
 22 32  1  0
 23 24  1  0
 24 25  2  0
 25 32  1  0
 25 26  1  0
 26 27  4  0
 26 31  4  0
 27 28  4  0
 28 29  4  0
 29 30  4  0
 30 31  4  0
M  END
$$$$
