
     RDKit          3D

 36 40  0  0  0  0  0  0  0  0999 V2000
   -3.1410  -10.1930  -10.7290 C   0  0  0  0  0  0  0  0  0  0  0  0
   -3.9660  -10.7170   -9.5550 C   0  0  0  0  0  0  0  0  0  0  0  0
   -3.9930   -9.7550   -8.3520 C   0  0  0  0  0  0  0  0  0  0  0  0
   -3.0270   -9.5630   -7.6890 O   0  0  0  0  0  0  0  0  0  0  0  0
   -5.2240   -9.0670   -8.0070 N   0  0  0  0  0  0  0  0  0  0  0  0
   -5.6190   -8.0950   -6.9480 C   0  0  0  0  0  0  0  0  0  0  0  0
   -6.9440   -7.9340   -7.5980 C   0  0  2  0  0  0  0  0  0  0  0  0
   -8.0510   -8.3320   -6.7280 N   0  0  0  0  0  0  0  0  0  0  0  0
   -8.2390   -7.7740   -5.3830 C   0  0  0  0  0  0  0  0  0  0  0  0
   -7.4950   -6.9660   -4.9350 O   0  0  0  0  0  0  0  0  0  0  0  0
   -9.4390   -8.2720   -4.5670 C   0  0  0  0  0  0  0  0  0  0  0  0
   -9.6120   -7.4840   -3.3500 N   0  0  0  0  0  0  0  0  0  0  0  0
  -10.4120   -6.4340   -3.2550 C   0  0  0  0  0  0  0  0  0  0  0  0
  -10.3300   -5.9220   -1.9580 C   0  0  0  0  0  0  0  0  0  0  0  0
  -11.1170   -4.6980   -1.4140 C   0  0  0  0  0  0  0  0  0  0  0  0
  -11.3230   -4.6180   -0.2470 O   0  0  0  0  0  0  0  0  0  0  0  0
  -11.6300   -3.6590   -2.3090 N   0  0  0  0  0  0  0  0  0  0  0  0
  -11.4020   -3.7230   -3.7730 C   0  0  0  0  0  0  0  0  0  0  0  0
  -11.6370   -2.4550   -4.5700 C   0  0  0  0  0  0  0  0  0  0  0  0
  -12.9120   -1.7480   -4.1410 C   0  0  0  0  0  0  0  0  0  0  0  0
  -13.2800   -1.7660   -2.8330 C   0  0  0  0  0  0  0  0  0  0  0  0
  -14.4730   -1.1010   -2.4060 C   0  0  0  0  0  0  0  0  0  0  0  0
  -15.2530   -0.4320   -3.3520 C   0  0  0  0  0  0  0  0  0  0  0  0
  -14.8710   -0.4180   -4.6970 C   0  0  0  0  0  0  0  0  0  0  0  0
  -13.7050   -1.0640   -5.1140 C   0  0  0  0  0  0  0  0  0  0  0  0
  -13.2880   -1.0750   -6.4610 O   0  0  0  0  0  0  0  0  0  0  0  0
  -13.8190   -0.0980   -7.3170 C   0  0  0  0  0  0  0  0  0  0  0  0
  -12.4020   -2.5040   -1.7750 C   0  0  0  0  0  0  0  0  0  0  0  0
   -9.4160   -6.7650   -1.2550 C   0  0  0  0  0  0  0  0  0  0  0  0
   -8.9090   -6.7900    0.0670 C   0  0  0  0  0  0  0  0  0  0  0  0
   -7.9890   -7.7770    0.4500 C   0  0  0  0  0  0  0  0  0  0  0  0
   -7.3040   -7.8070    2.2650 Br  0  0  0  0  0  0  0  0  0  0  0  0
   -7.5590   -8.7450   -0.4700 C   0  0  0  0  0  0  0  0  0  0  0  0
   -8.0530   -8.7230   -1.7720 C   0  0  0  0  0  0  0  0  0  0  0  0
   -8.9900   -7.7200   -2.1620 C   0  0  0  0  0  0  0  0  0  0  0  0
   -6.6120   -9.0230   -8.5540 C   0  0  0  0  0  0  0  0  0  0  0  0
  1  2  1  0
  2  3  1  0
  3  4  2  0
  3  5  1  0
  5  6  1  0
  5 36  1  0
  6  7  1  0
  7 36  1  0
  7  8  1  1
  8  9  1  0
  9 10  2  0
  9 11  1  0
 11 12  1  0
 12 13  1  0
 12 35  1  0
 13 14  2  0
 14 15  1  0
 14 29  1  0
 15 16  2  0
 15 17  1  0
 17 18  1  0
 17 28  1  0
 18 19  1  0
 19 20  1  0
 20 25  2  0
 20 21  1  0
 25 26  1  0
 25 24  1  0
 26 27  1  0
 24 23  2  0
 23 22  1  0
 22 21  2  0
 21 28  1  0
 29 30  1  0
 29 35  2  0
 30 31  2  0
 31 32  1  0
 31 33  1  0
 33 34  2  0
 34 35  1  0
M  END
$$$$
