
     RDKit          3D

 36 40  0  0  0  0  0  0  0  0999 V2000
   -4.1623  -18.7000    6.1449 C   0  0  0  0  0  0  0  0  0  0  0  0
   -4.5384  -17.2674    6.1365 C   0  0  0  0  0  0  0  0  0  0  0  0
   -6.0540  -17.0058    5.9208 C   0  0  0  0  0  0  0  0  0  0  0  0
   -6.7789  -17.9355    5.7333 O   0  0  0  0  0  0  0  0  0  0  0  0
   -6.6656  -15.8338    6.5375 N   0  0  0  0  0  0  0  0  0  0  0  0
   -7.6920  -15.6437    7.6118 C   0  0  0  0  0  0  0  0  0  0  0  0
   -6.9898  -14.4497    8.0938 C   0  0  1  0  0  0  0  0  0  0  0  0
   -6.0773  -14.6871    9.2225 N   0  0  0  0  0  0  0  0  0  0  0  0
   -4.8388  -15.4751    9.0352 C   0  0  0  0  0  0  0  0  0  0  0  0
   -3.9962  -15.3543    9.9795 O   0  0  0  0  0  0  0  0  0  0  0  0
   -4.2966  -15.6760    7.6287 C   0  0  0  0  0  0  0  0  0  0  0  0
   -2.7945  -15.6706    7.6515 N   0  0  0  0  0  0  0  0  0  0  0  0
   -2.1836  -16.4428    8.6387 C   0  0  0  0  0  0  0  0  0  0  0  0
   -1.8515  -15.4671    9.5849 C   0  0  0  0  0  0  0  0  0  0  0  0
   -2.5149  -15.3943   10.9855 C   0  0  0  0  0  0  0  0  0  0  0  0
   -1.7091  -15.5966   11.9743 O   0  0  0  0  0  0  0  0  0  0  0  0
   -3.8956  -15.8668   11.1805 N   0  0  0  0  0  0  0  0  0  0  0  0
   -4.7220  -15.3569   12.2818 C   0  0  0  0  0  0  0  0  0  0  0  0
   -6.2454  -15.2930   12.0669 C   0  0  0  0  0  0  0  0  0  0  0  0
   -6.7487  -16.5770   11.3925 C   0  0  0  0  0  0  0  0  0  0  0  0
   -5.9920  -17.1618   10.4260 C   0  0  0  0  0  0  0  0  0  0  0  0
   -6.4416  -18.3606    9.8087 C   0  0  0  0  0  0  0  0  0  0  0  0
   -7.5697  -19.0571   10.2920 C   0  0  0  0  0  0  0  0  0  0  0  0
   -8.3532  -18.3989   11.3109 C   0  0  0  0  0  0  0  0  0  0  0  0
   -7.8342  -17.2905   11.9890 C   0  0  0  0  0  0  0  0  0  0  0  0
   -8.1062  -17.0744   13.3561 O   0  0  0  0  0  0  0  0  0  0  0  0
   -8.7024  -15.8548   13.7214 C   0  0  0  0  0  0  0  0  0  0  0  0
   -4.6000  -16.5700   10.0729 C   0  0  0  0  0  0  0  0  0  0  0  0
   -1.4517  -14.3201    8.8175 C   0  0  0  0  0  0  0  0  0  0  0  0
   -0.5179  -13.2851    8.9349 C   0  0  0  0  0  0  0  0  0  0  0  0
   -0.1189  -12.5395    7.8139 C   0  0  0  0  0  0  0  0  0  0  0  0
    0.4377  -10.6963    8.0520 Br  0  0  0  0  0  0  0  0  0  0  0  0
   -0.4516  -12.9764    6.5092 C   0  0  0  0  0  0  0  0  0  0  0  0
   -1.4579  -13.9630    6.3881 C   0  0  0  0  0  0  0  0  0  0  0  0
   -2.0366  -14.5674    7.5169 C   0  0  0  0  0  0  0  0  0  0  0  0
   -6.1959  -14.4469    6.8252 C   0  0  0  0  0  0  0  0  0  0  0  0
  1  2  1  0
  2  3  1  0
  3  4  2  0
  3  5  1  0
  5  6  1  0
  5 36  1  0
  6  7  1  0
  7 36  1  0
  7  8  1  6
  8  9  1  0
  9 10  2  0
  9 11  1  0
 11 12  1  0
 12 13  4  0
 12 35  4  0
 13 14  4  0
 14 15  1  0
 14 29  4  0
 15 16  2  0
 15 17  1  0
 17 18  1  0
 17 28  1  0
 18 19  1  0
 19 20  1  0
 20 25  4  0
 20 21  4  0
 25 26  1  0
 25 24  4  0
 26 27  1  0
 24 23  4  0
 23 22  4  0
 22 21  4  0
 21 28  1  0
 29 30  4  0
 29 35  4  0
 30 31  4  0
 31 32  1  0
 31 33  4  0
 33 34  4  0
 34 35  4  0
M  END
$$$$
