
     RDKit          3D

 40 45  0  0  0  0  0  0  0  0999 V2000
   -1.7140  -14.4670   25.0340 C   0  0  0  0  0  0  0  0  0  0  0  0
   -0.3670  -15.1090   25.4040 C   0  0  0  0  0  0  0  0  0  0  0  0
    0.5350  -14.1670   26.2340 C   0  0  0  0  0  0  0  0  0  0  0  0
    1.2240  -13.3580   25.7150 O   0  0  0  0  0  0  0  0  0  0  0  0
    0.5310  -14.2820   27.6880 N   0  0  0  0  0  0  0  0  0  0  0  0
   -0.2030  -15.1540   28.6540 C   0  0  0  0  0  0  0  0  0  0  0  0
    0.4280  -14.4080   29.7760 C   0  0  1  0  0  0  0  0  0  0  0  0
    1.2260  -15.3740   30.5430 N   0  0  0  0  0  0  0  0  0  0  0  0
    1.7520  -15.0240   31.8620 C   0  0  0  0  0  0  0  0  0  0  0  0
    1.5450  -13.9370   32.3090 O   0  0  0  0  0  0  0  0  0  0  0  0
    2.5820  -16.0820   32.6490 C   0  0  0  0  0  0  0  0  0  0  0  0
    3.0470  -15.4150   33.8750 N   0  0  0  0  0  0  0  0  0  0  0  0
    2.4130  -15.4750   35.0630 C   0  0  0  0  0  0  0  0  0  0  0  0
    1.1060  -16.2430   35.3990 C   0  0  2  0  0  0  0  0  0  0  0  0
   -0.1800  -15.5850   34.8720 C   0  0  0  0  0  0  0  0  0  0  0  0
   -0.1220  -16.0950   36.3110 C   0  0  0  0  0  0  0  0  0  0  0  0
    3.1530  -14.7030   35.9670 C   0  0  0  0  0  0  0  0  0  0  0  0
    2.8570  -14.4490   37.4870 C   0  0  0  0  0  0  0  0  0  0  0  0
    3.0450  -15.3160   38.2780 O   0  0  0  0  0  0  0  0  0  0  0  0
    2.3950  -13.1070   37.9160 N   0  0  0  0  0  0  0  0  0  0  0  0
    2.0820  -12.8090   39.3140 C   0  0  0  0  0  0  0  0  0  0  0  0
    0.5340  -12.7120   39.4310 C   0  0  0  0  0  0  0  0  0  0  0  0
   -0.0710  -11.9110   38.2290 C   0  0  0  0  0  0  0  0  0  0  0  0
    0.6670  -11.5900   37.1060 C   0  0  0  0  0  0  0  0  0  0  0  0
    0.0620  -10.8440   36.0370 C   0  0  0  0  0  0  0  0  0  0  0  0
   -1.2770  -10.4380   36.1410 C   0  0  0  0  0  0  0  0  0  0  0  0
   -2.0260  -10.7630   37.2860 C   0  0  0  0  0  0  0  0  0  0  0  0
   -1.4420  -11.4860   38.3390 C   0  0  0  0  0  0  0  0  0  0  0  0
   -2.1760  -11.8290   39.5080 O   0  0  0  0  0  0  0  0  0  0  0  0
   -3.2160  -10.9430   39.9070 C   0  0  0  0  0  0  0  0  0  0  0  0
    2.1340  -12.0300   36.9900 C   0  0  0  0  0  0  0  0  0  0  0  0
    4.2780  -14.1570   35.2490 C   0  0  0  0  0  0  0  0  0  0  0  0
    5.3500  -13.3110   35.6690 C   0  0  0  0  0  0  0  0  0  0  0  0
    6.3150  -12.9500   34.7110 C   0  0  0  0  0  0  0  0  0  0  0  0
    7.6440  -11.8800   35.1910 Cl  0  0  0  0  0  0  0  0  0  0  0  0
    6.2370  -13.4040   33.3800 C   0  0  0  0  0  0  0  0  0  0  0  0
    5.1830  -14.2380   32.9790 C   0  0  0  0  0  0  0  0  0  0  0  0
    5.1400  -14.7150   31.5120 C   0  0  0  0  0  0  0  0  0  0  0  0
    4.1860  -14.6190   33.9580 C   0  0  0  0  0  0  0  0  0  0  0  0
    1.2290  -13.5890   28.8210 C   0  0  0  0  0  0  0  0  0  0  0  0
  1  2  1  0
  2  3  1  0
  3  4  2  0
  3  5  1  0
  5  6  1  0
  5 40  1  0
  6  7  1  0
  7 40  1  0
  7  8  1  1
  8  9  1  0
  9 10  2  0
  9 11  1  0
 11 12  1  0
 12 13  1  0
 12 39  1  0
 14 13  1  1
 13 17  2  0
 14 15  1  0
 14 16  1  0
 15 16  1  0
 17 18  1  0
 17 32  1  0
 18 19  2  0
 18 20  1  0
 20 21  1  0
 20 31  1  0
 21 22  1  0
 22 23  1  0
 23 28  2  0
 23 24  1  0
 28 29  1  0
 28 27  1  0
 29 30  1  0
 27 26  2  0
 26 25  1  0
 25 24  2  0
 24 31  1  0
 32 33  2  0
 32 39  1  0
 33 34  1  0
 34 35  1  0
 34 36  2  0
 36 37  1  0
 37 38  1  0
 37 39  2  0
M  END
$$$$
