
     RDKit          3D

 40 45  0  0  0  0  0  0  0  0999 V2000
   19.0246  -24.8048   29.4864 C   0  0  0  0  0  0  0  0  0  0  0  0
   20.2175  -23.9577   30.0783 C   0  0  0  0  0  0  0  0  0  0  0  0
   19.7951  -23.2678   31.3675 C   0  0  0  0  0  0  0  0  0  0  0  0
   20.6442  -23.3362   32.3189 O   0  0  0  0  0  0  0  0  0  0  0  0
   18.4234  -23.1095   31.7454 N   0  0  0  0  0  0  0  0  0  0  0  0
   17.6048  -22.0577   32.4282 C   0  0  0  0  0  0  0  0  0  0  0  0
   16.4171  -22.4969   31.6703 C   0  0  1  0  0  0  0  0  0  0  0  0
   16.2257  -21.5627   30.5885 N   0  0  0  0  0  0  0  0  0  0  0  0
   17.2922  -20.6928   30.1505 C   0  0  0  0  0  0  0  0  0  0  0  0
   18.2487  -20.4805   30.9161 O   0  0  0  0  0  0  0  0  0  0  0  0
   17.4602  -20.4436   28.6030 C   0  0  0  0  0  0  0  0  0  0  0  0
   16.2422  -19.8720   28.1172 N   0  0  0  0  0  0  0  0  0  0  0  0
   15.3268  -20.5432   27.4020 C   0  0  0  0  0  0  0  0  0  0  0  0
   15.2308  -22.0475   27.1257 C   0  0  2  0  0  0  0  0  0  0  0  0
   15.6007  -22.9863   28.2905 C   0  0  0  0  0  0  0  0  0  0  0  0
   16.1881  -23.2406   26.8651 C   0  0  0  0  0  0  0  0  0  0  0  0
   14.4049  -19.5605   26.8657 C   0  0  0  0  0  0  0  0  0  0  0  0
   13.9822  -19.4829   25.3691 C   0  0  0  0  0  0  0  0  0  0  0  0
   14.1512  -18.4304   24.7974 O   0  0  0  0  0  0  0  0  0  0  0  0
   12.7915  -20.3013   24.9313 N   0  0  0  0  0  0  0  0  0  0  0  0
   12.8861  -21.7359   24.8458 C   0  0  0  0  0  0  0  0  0  0  0  0
   11.6090  -22.3419   25.5788 C   0  0  0  0  0  0  0  0  0  0  0  0
   10.3409  -21.5701   25.0656 C   0  0  0  0  0  0  0  0  0  0  0  0
   10.4017  -20.3382   24.4882 C   0  0  0  0  0  0  0  0  0  0  0  0
    9.1893  -19.7287   23.9623 C   0  0  0  0  0  0  0  0  0  0  0  0
    8.0034  -20.5171   23.8541 C   0  0  0  0  0  0  0  0  0  0  0  0
    7.9917  -21.8390   24.3533 C   0  0  0  0  0  0  0  0  0  0  0  0
    9.1382  -22.3283   25.0700 C   0  0  0  0  0  0  0  0  0  0  0  0
    8.9233  -23.3199   26.0760 O   0  0  0  0  0  0  0  0  0  0  0  0
    7.6567  -23.3536   26.7703 C   0  0  0  0  0  0  0  0  0  0  0  0
   11.7511  -19.6929   24.1278 C   0  0  0  0  0  0  0  0  0  0  0  0
   14.6217  -18.3568   27.7171 C   0  0  0  0  0  0  0  0  0  0  0  0
   13.6715  -17.4929   28.3292 C   0  0  0  0  0  0  0  0  0  0  0  0
   14.1620  -16.6263   29.2856 C   0  0  0  0  0  0  0  0  0  0  0  0
   12.9349  -15.7729   30.2672 Cl  0  0  0  0  0  0  0  0  0  0  0  0
   15.5033  -16.5728   29.6659 C   0  0  0  0  0  0  0  0  0  0  0  0
   16.3808  -17.4545   29.0884 C   0  0  0  0  0  0  0  0  0  0  0  0
   17.8618  -17.1571   29.1542 C   0  0  0  0  0  0  0  0  0  0  0  0
   15.8896  -18.5320   28.2417 C   0  0  0  0  0  0  0  0  0  0  0  0
   17.1021  -23.7496   31.2485 C   0  0  0  0  0  0  0  0  0  0  0  0
  1  2  1  0
  2  3  1  0
  3  4  2  0
  3  5  1  0
  5  6  1  0
  5 40  1  0
  6  7  1  0
  7 40  1  0
  7  8  1  6
  8  9  1  0
  9 10  2  0
  9 11  1  0
 11 12  1  0
 12 13  4  0
 12 39  4  0
 14 13  1  1
 13 17  4  0
 14 15  1  0
 14 16  1  0
 15 16  1  0
 17 18  1  0
 17 32  4  0
 18 19  2  0
 18 20  1  0
 20 21  1  0
 20 31  1  0
 21 22  1  0
 22 23  1  0
 23 28  4  0
 23 24  4  0
 28 29  1  0
 28 27  4  0
 29 30  1  0
 27 26  4  0
 26 25  4  0
 25 24  4  0
 24 31  1  0
 32 33  4  0
 32 39  4  0
 33 34  4  0
 34 35  1  0
 34 36  4  0
 36 37  4  0
 37 38  1  0
 37 39  4  0
M  END
$$$$
