
     RDKit          3D

 35 39  0  0  0  0  0  0  0  0999 V2000
    5.7280   -3.7740   40.0010 C   0  0  0  0  0  0  0  0  0  0  0  0
    6.9070   -4.6230   40.4260 C   0  0  0  0  0  0  0  0  0  0  0  0
    8.2370   -3.8780   40.3540 C   0  0  0  0  0  0  0  0  0  0  0  0
    8.6450   -3.4520   39.3190 O   0  0  0  0  0  0  0  0  0  0  0  0
    9.0080   -3.6940   41.5630 N   0  0  0  0  0  0  0  0  0  0  0  0
   10.2450   -3.0270   41.5230 C   0  0  0  0  0  0  0  0  0  0  0  0
   10.2570   -1.9420   42.5700 C   0  0  0  0  0  0  0  0  0  0  0  0
   10.1410   -2.5770   43.9220 N   0  0  0  0  0  0  0  0  0  0  0  0
   10.6610   -1.7300   44.9520 C   0  0  0  0  0  0  0  0  0  0  0  0
    9.8380   -0.9740   45.6610 N   0  0  0  0  0  0  0  0  0  0  0  0
   10.3140   -0.1210   46.6180 N   0  0  0  0  0  0  0  0  0  0  0  0
   11.6160   -0.0240   46.8420 C   0  0  0  0  0  0  0  0  0  0  0  0
   12.0240    0.8620   47.8150 C   0  0  0  0  0  0  0  0  0  0  0  0
   11.8540    0.5540   49.1600 C   0  0  0  0  0  0  0  0  0  0  0  0
   12.2660    1.4650   50.1270 C   0  0  0  0  0  0  0  0  0  0  0  0
   12.8330    2.6770   49.7460 C   0  0  0  0  0  0  0  0  0  0  0  0
   12.9990    2.9800   48.4010 C   0  0  0  0  0  0  0  0  0  0  0  0
   12.5870    2.0750   47.4320 C   0  0  0  0  0  0  0  0  0  0  0  0
   12.5600   -0.8020   46.0970 C   0  0  0  0  0  0  0  0  0  0  0  0
   13.9720   -0.7250   46.3100 C   0  0  0  0  0  0  0  0  0  0  0  0
   14.8570   -1.5060   45.5650 C   0  0  0  0  0  0  0  0  0  0  0  0
   16.2240   -1.3890   45.8010 C   0  0  0  0  0  0  0  0  0  0  0  0
   16.8010   -1.8960   46.9630 C   0  0  0  0  0  0  0  0  0  0  0  0
   16.0050   -2.5570   47.9060 O   0  0  0  0  0  0  0  0  0  0  0  0
   18.1680   -1.7520   47.1860 C   0  0  0  0  0  0  0  0  0  0  0  0
   18.9640   -1.0940   46.2570 C   0  0  0  0  0  0  0  0  0  0  0  0
   18.3950   -0.5840   45.0970 C   0  0  0  0  0  0  0  0  0  0  0  0
   17.0300   -0.7270   44.8740 C   0  0  0  0  0  0  0  0  0  0  0  0
   16.4810   -0.2240   43.7330 F   0  0  0  0  0  0  0  0  0  0  0  0
   14.3490   -2.3700   44.5880 C   0  0  0  0  0  0  0  0  0  0  0  0
   15.4590   -3.3740   43.6220 Cl  0  0  0  0  0  0  0  0  0  0  0  0
   12.9740   -2.4520   44.3730 C   0  0  0  0  0  0  0  0  0  0  0  0
   12.0730   -1.6500   45.1440 C   0  0  0  0  0  0  0  0  0  0  0  0
    8.7650   -3.1410   43.9690 C   0  0  0  0  0  0  0  0  0  0  0  0
    8.6130   -4.1650   42.8480 C   0  0  0  0  0  0  0  0  0  0  0  0
  1  2  1  0
  2  3  1  0
  3  4  2  0
  3  5  1  0
  5  6  1  0
  5 35  1  0
  6  7  1  0
  7  8  1  0
  8 34  1  0
  8  9  1  0
 34 35  1  0
  9 10  2  0
  9 33  1  0
 10 11  1  0
 11 12  2  0
 12 13  1  0
 12 19  1  0
 13 14  2  0
 13 18  1  0
 14 15  1  0
 15 16  2  0
 16 17  1  0
 17 18  2  0
 19 20  1  0
 19 33  2  0
 20 21  2  0
 21 30  1  0
 21 22  1  0
 30 31  1  0
 30 32  2  0
 32 33  1  0
 22 23  2  0
 22 28  1  0
 23 24  1  0
 23 25  1  0
 25 26  2  0
 26 27  1  0
 27 28  2  0
 28 29  1  0
M  END
$$$$
