
     RDKit          3D

 39 43  0  0  0  0  0  0  0  0999 V2000
   -1.3611   -7.1588   -6.5444 C   0  0  0  0  0  0  0  0  0  0  0  0
    0.0554   -7.1430   -7.1463 C   0  0  0  0  0  0  0  0  0  0  0  0
    0.9290   -6.1311   -6.3932 C   0  0  0  0  0  0  0  0  0  0  0  0
    0.9317   -6.1740   -5.1343 O   0  0  0  0  0  0  0  0  0  0  0  0
    1.3335   -5.0327   -7.0224 N   0  0  0  0  0  0  0  0  0  0  0  0
    2.0659   -5.1644   -8.2714 C   0  0  0  0  0  0  0  0  0  0  0  0
    2.7663   -3.8499   -8.6516 C   0  0  0  0  0  0  0  0  0  0  0  0
    1.7929   -2.7288   -8.6298 N   0  0  0  0  0  0  0  0  0  0  0  0
    2.1265   -1.4889   -9.2221 C   0  0  0  0  0  0  0  0  0  0  0  0
    1.0733   -0.7794   -9.7049 N   0  0  0  0  0  0  0  0  0  0  0  0
    0.6548    0.2812   -9.0080 C   0  0  0  0  0  0  0  0  0  0  0  0
   -0.5794    0.5420   -8.9881 O   0  0  0  0  0  0  0  0  0  0  0  0
    1.4930    0.8728   -8.0487 N   0  0  0  0  0  0  0  0  0  0  0  0
    0.8705    1.4535   -6.8707 C   0  0  0  0  0  0  0  0  0  0  0  0
    1.3666    2.7181   -6.4937 C   0  0  0  0  0  0  0  0  0  0  0  0
    2.3270    2.8000   -5.5257 C   0  0  0  0  0  0  0  0  0  0  0  0
    2.4004    1.7237   -4.5964 C   0  0  0  0  0  0  0  0  0  0  0  0
    1.6720    0.5769   -4.8160 C   0  0  0  0  0  0  0  0  0  0  0  0
    0.6497    0.5900   -5.7891 C   0  0  0  0  0  0  0  0  0  0  0  0
   -0.8012    0.3406   -5.3500 C   0  0  2  0  0  0  0  0  0  0  0  0
   -1.5442    1.7701   -5.4713 C   0  0  0  0  0  0  0  0  0  0  0  0
   -0.9096   -0.1770   -3.8737 C   0  0  0  0  0  0  0  0  0  0  0  0
    2.8114    0.4456   -7.9739 C   0  0  0  0  0  0  0  0  0  0  0  0
    3.8283    1.3963   -7.5533 C   0  0  0  0  0  0  0  0  0  0  0  0
    5.0520    1.4114   -8.2334 C   0  0  0  0  0  0  0  0  0  0  0  0
    5.5370    2.6667   -8.7199 C   0  0  0  0  0  0  0  0  0  0  0  0
    4.6328    3.7468   -8.8380 C   0  0  0  0  0  0  0  0  0  0  0  0
    3.2964    3.5643   -8.7506 O   0  0  0  0  0  0  0  0  0  0  0  0
    5.1045    5.0403   -8.8074 C   0  0  0  0  0  0  0  0  0  0  0  0
    6.4668    5.3196   -8.7475 C   0  0  0  0  0  0  0  0  0  0  0  0
    7.3590    4.2843   -8.7553 C   0  0  0  0  0  0  0  0  0  0  0  0
    6.9045    2.9434   -8.7878 C   0  0  0  0  0  0  0  0  0  0  0  0
    7.8115    1.9354   -8.8456 F   0  0  0  0  0  0  0  0  0  0  0  0
    5.4554    0.1817   -8.8612 C   0  0  0  0  0  0  0  0  0  0  0  0
    7.1197   -0.2431   -8.8838 Cl  0  0  0  0  0  0  0  0  0  0  0  0
    4.5194   -0.7930   -9.1174 C   0  0  0  0  0  0  0  0  0  0  0  0
    3.2159   -0.6994   -8.6448 C   0  0  0  0  0  0  0  0  0  0  0  0
    0.5475   -2.7818   -7.7738 C   0  0  0  0  0  0  0  0  0  0  0  0
    0.7888   -3.7606   -6.6031 C   0  0  0  0  0  0  0  0  0  0  0  0
 20 21  1  1
 20 22  1  0
 20 19  1  0
 19 18  4  0
 19 14  4  0
 18 17  4  0
 17 16  4  0
 16 15  4  0
 15 14  4  0
 14 13  1  0
 13 23  4  0
 13 11  4  0
 23 24  4  0
 23 37  4  0
 24 25  4  0
 11 12  2  0
 11 10  4  0
 10  9  4  0
  9  8  1  0
  9 37  4  0
  8  7  1  0
  8 38  1  0
  7  6  1  0
  6  5  1  0
 38 39  1  0
 39  5  1  0
  5  3  1  0
  3  4  2  0
  3  2  1  0
  2  1  1  0
 37 36  4  0
 36 34  4  0
 34 35  1  0
 34 25  4  0
 25 26  1  0
 26 32  4  0
 26 27  4  0
 32 33  1  0
 32 31  4  0
 31 30  4  0
 30 29  4  0
 29 27  4  0
 27 28  1  0
M  END
$$$$
