
     RDKit          3D

 39 43  0  0  0  0  0  0  0  0999 V2000
   -1.1630   -7.9090   -6.9920 C   0  0  0  0  0  0  0  0  0  0  0  0
   -0.9890   -6.5900   -6.2410 C   0  0  0  0  0  0  0  0  0  0  0  0
    0.4370   -6.0740   -6.4330 C   0  0  0  0  0  0  0  0  0  0  0  0
    1.3800   -6.6800   -5.9240 O   0  0  0  0  0  0  0  0  0  0  0  0
    0.6590   -4.9850   -7.1690 N   0  0  0  0  0  0  0  0  0  0  0  0
    2.0610   -4.5140   -7.3550 C   0  0  0  0  0  0  0  0  0  0  0  0
    2.0940   -3.0130   -7.5790 C   0  0  0  0  0  0  0  0  0  0  0  0
    1.1810   -2.5930   -8.6520 N   0  0  0  0  0  0  0  0  0  0  0  0
    1.5640   -1.5690   -9.5280 C   0  0  0  0  0  0  0  0  0  0  0  0
    1.1470   -1.6900  -10.8040 N   0  0  0  0  0  0  0  0  0  0  0  0
    1.4610   -0.7890  -11.7460 C   0  0  0  0  0  0  0  0  0  0  0  0
    1.0600   -0.9280  -12.9050 O   0  0  0  0  0  0  0  0  0  0  0  0
    2.2560    0.3080  -11.4330 N   0  0  0  0  0  0  0  0  0  0  0  0
    2.5470    1.2520  -12.4410 C   0  0  0  0  0  0  0  0  0  0  0  0
    1.7390    2.3850  -12.5070 C   0  0  0  0  0  0  0  0  0  0  0  0
    1.9780    3.3590  -13.4730 C   0  0  0  0  0  0  0  0  0  0  0  0
    3.0300    3.1850  -14.3650 C   0  0  0  0  0  0  0  0  0  0  0  0
    3.8440    2.0600  -14.2990 C   0  0  0  0  0  0  0  0  0  0  0  0
    3.5980    1.0760  -13.3310 C   0  0  0  0  0  0  0  0  0  0  0  0
    4.4840   -0.1810  -13.2180 C   0  0  2  0  0  0  0  0  0  0  0  0
    5.9070    0.2710  -12.9140 C   0  0  0  0  0  0  0  0  0  0  0  0
    4.4360   -1.0110  -14.5160 C   0  0  0  0  0  0  0  0  0  0  0  0
    2.7130    0.4800  -10.1130 C   0  0  0  0  0  0  0  0  0  0  0  0
    3.5010    1.5830   -9.7760 C   0  0  0  0  0  0  0  0  0  0  0  0
    3.9660    1.7810   -8.4820 C   0  0  0  0  0  0  0  0  0  0  0  0
    4.7690    2.9100   -8.2210 C   0  0  0  0  0  0  0  0  0  0  0  0
    4.2520    4.2040   -8.3290 C   0  0  0  0  0  0  0  0  0  0  0  0
    2.9510    4.3900   -8.6600 O   0  0  0  0  0  0  0  0  0  0  0  0
    5.0520    5.3220   -8.0860 C   0  0  0  0  0  0  0  0  0  0  0  0
    6.3940    5.1600   -7.7510 C   0  0  0  0  0  0  0  0  0  0  0  0
    6.9270    3.8830   -7.6500 C   0  0  0  0  0  0  0  0  0  0  0  0
    6.1290    2.7630   -7.8960 C   0  0  0  0  0  0  0  0  0  0  0  0
    6.6920    1.5450   -7.7870 F   0  0  0  0  0  0  0  0  0  0  0  0
    3.6110    0.8290   -7.5210 C   0  0  0  0  0  0  0  0  0  0  0  0
    4.1360    0.9940   -5.8890 Cl  0  0  0  0  0  0  0  0  0  0  0  0
    2.8290   -0.2810   -7.8550 C   0  0  0  0  0  0  0  0  0  0  0  0
    2.3630   -0.4690   -9.1520 C   0  0  0  0  0  0  0  0  0  0  0  0
   -0.0370   -3.3850   -8.9530 C   0  0  0  0  0  0  0  0  0  0  0  0
   -0.4790   -4.2560   -7.7880 C   0  0  0  0  0  0  0  0  0  0  0  0
 20 21  1  6
 20 22  1  0
 20 19  1  0
 19 18  2  0
 19 14  1  0
 18 17  1  0
 17 16  2  0
 16 15  1  0
 15 14  2  0
 14 13  1  0
 13 23  1  0
 13 11  1  0
 23 24  2  0
 23 37  1  0
 24 25  1  0
 11 12  2  0
 11 10  1  0
 10  9  2  0
  9  8  1  0
  9 37  1  0
  8  7  1  0
  8 38  1  0
  7  6  1  0
  6  5  1  0
 38 39  1  0
 39  5  1  0
  5  3  1  0
  3  4  2  0
  3  2  1  0
  2  1  1  0
 37 36  2  0
 36 34  1  0
 34 35  1  0
 34 25  2  0
 25 26  1  0
 26 32  2  0
 26 27  1  0
 32 33  1  0
 32 31  1  0
 31 30  2  0
 30 29  1  0
 29 27  2  0
 27 28  1  0
M  END
$$$$
