
     RDKit          3D

 18 18  0  0  0  0  0  0  0  0999 V2000
   19.3460   -6.2876   12.1177 C   0  0  0  0  0  0  0  0  0  0  0  0
   19.5030   -6.2657   13.6055 C   0  0  0  0  0  0  0  0  0  0  0  0
   20.6460   -6.3912   14.0892 O   0  0  0  0  0  0  0  0  0  0  0  0
   18.3703   -5.9831   14.1896 N   0  0  0  0  0  0  0  0  0  0  0  0
   18.4032   -5.0719   15.2027 C   0  0  0  0  0  0  0  0  0  0  0  0
   19.1768   -3.9887   15.0338 C   0  0  0  0  0  0  0  0  0  0  0  0
   19.0517   -2.8780   15.8630 C   0  0  0  0  0  0  0  0  0  0  0  0
   18.1132   -2.9202   16.8990 C   0  0  0  0  0  0  0  0  0  0  0  0
   17.9817   -1.6529   17.7630 Cl  0  0  0  0  0  0  0  0  0  0  0  0
   17.1681   -3.9554   16.9389 C   0  0  0  0  0  0  0  0  0  0  0  0
   15.5560   -3.6964   17.4017 S   0  0  1  0  0  0  0  0  0  0  0  0
   15.0170   -4.7746   18.2917 O   0  0  0  0  0  0  0  0  0  0  0  0
   15.5809   -2.3220   18.1501 O   0  0  0  0  0  0  0  0  0  0  0  0
   14.5507   -3.3732   16.0732 N   0  0  0  0  0  0  0  0  0  0  0  0
   15.0376   -2.4521   15.0304 C   0  0  2  0  0  0  0  0  0  0  0  0
   14.0066   -2.4046   13.8967 C   0  0  0  0  0  0  0  0  0  0  0  0
   16.4393   -2.6250   14.4406 C   0  0  0  0  0  0  0  0  0  0  0  0
   17.4286   -5.1163   16.2407 C   0  0  0  0  0  0  0  0  0  0  0  0
  1  2  1  0
  2  3  2  0
  2  4  1  0
  4  5  1  0
  5 18  4  0
  5  6  4  0
 18 10  4  0
  6  7  4  0
  7  8  4  0
  8  9  1  0
  8 10  4  0
 10 11  1  0
 11 12  2  0
 11 13  2  0
 11 14  1  1
 14 15  1  0
 15 16  1  6
 15 17  1  0
M  END
$$$$
