
     RDKit          3D

 18 18  0  0  0  0  0  0  0  0999 V2000
   18.5370   -7.4600   13.5770 C   0  0  0  0  0  0  0  0  0  0  0  0
   18.1290   -6.2490   14.3920 C   0  0  0  0  0  0  0  0  0  0  0  0
   18.8160   -5.1930   14.3480 O   0  0  0  0  0  0  0  0  0  0  0  0
   16.9740   -6.4680   15.0230 N   0  0  0  0  0  0  0  0  0  0  0  0
   16.4690   -5.5260   15.8380 C   0  0  0  0  0  0  0  0  0  0  0  0
   15.1020   -5.5320   16.0100 C   0  0  0  0  0  0  0  0  0  0  0  0
   14.5260   -4.6100   16.8740 C   0  0  0  0  0  0  0  0  0  0  0  0
   15.3430   -3.7610   17.5980 C   0  0  0  0  0  0  0  0  0  0  0  0
   14.6250   -2.7090   18.5160 Cl  0  0  0  0  0  0  0  0  0  0  0  0
   16.7320   -3.7720   17.4300 C   0  0  0  0  0  0  0  0  0  0  0  0
   17.7740   -2.7040   18.2950 S   0  0  2  0  0  0  0  0  0  0  0  0
   19.1830   -2.8380   17.9050 O   0  0  0  0  0  0  0  0  0  0  0  0
   17.5380   -3.1380   19.7900 O   0  0  0  0  0  0  0  0  0  0  0  0
   17.2230   -1.1210   18.1880 N   0  0  0  0  0  0  0  0  0  0  0  0
   17.0780   -0.4700   16.8500 C   0  0  2  0  0  0  0  0  0  0  0  0
   15.6050   -0.0810   16.6350 C   0  0  0  0  0  0  0  0  0  0  0  0
   17.5950   -1.2270   15.6180 C   0  0  0  0  0  0  0  0  0  0  0  0
   17.3040   -4.6650   16.5640 C   0  0  0  0  0  0  0  0  0  0  0  0
  1  2  1  0
  2  3  2  0
  2  4  1  0
  4  5  1  0
  5 18  2  0
  5  6  1  0
 18 10  1  0
  6  7  2  0
  7  8  1  0
  8  9  1  0
  8 10  2  0
 10 11  1  0
 11 12  2  0
 11 13  2  0
 11 14  1  1
 14 15  1  0
 15 16  1  6
 15 17  1  0
M  END
$$$$
