
     RDKit          3D

 21 21  0  0  0  0  0  0  0  0999 V2000
   -2.8904   -0.5802   -7.5426 C   0  0  0  0  0  0  0  0  0  0  0  0
   -3.2432    0.7988   -7.8925 C   0  0  0  0  0  0  0  0  0  0  0  0
   -4.5461    1.4077   -7.5560 C   0  0  0  0  0  0  0  0  0  0  0  0
   -5.6753    0.7310   -7.3875 C   0  0  0  0  0  0  0  0  0  0  0  0
   -6.7244    1.2736   -6.5320 C   0  0  0  0  0  0  0  0  0  0  0  0
   -7.8730    1.6473   -7.0251 C   0  0  2  0  0  0  0  0  0  0  0  0
   -8.0968    3.0281   -7.5791 C   0  0  0  0  0  0  0  0  0  0  0  0
   -8.9448    0.6841   -6.6879 C   0  0  0  0  0  0  0  0  0  0  0  0
   -9.2206    0.8843   -5.2300 C   0  0  0  0  0  0  0  0  0  0  0  0
   -7.9499    0.6482   -4.3644 C   0  0  0  0  0  0  0  0  0  0  0  0
   -6.6804    1.2245   -5.0212 C   0  0  1  0  0  0  0  0  0  0  0  0
   -5.5522    0.3894   -4.5719 C   0  0  0  0  0  0  0  0  0  0  0  0
   -6.5220    2.6420   -4.5418 C   0  0  0  0  0  0  0  0  0  0  0  0
   -2.4654    1.5103   -8.6614 C   0  0  0  0  0  0  0  0  0  0  0  0
   -1.6173    0.9917   -9.7066 C   0  0  0  0  0  0  0  0  0  0  0  0
   -1.6327    1.7384  -10.8419 C   0  0  0  0  0  0  0  0  0  0  0  0
   -0.5020    2.1828  -11.6444 C   0  0  0  0  0  0  0  0  0  0  0  0
    0.7973    1.4168  -11.5494 C   0  0  0  0  0  0  0  0  0  0  0  0
   -0.5856    3.3387  -12.2909 C   0  0  0  0  0  0  0  0  0  0  0  0
    0.2587    3.5897  -13.5646 C   0  0  0  0  0  0  0  0  0  0  0  0
    1.2122    2.5633  -13.6338 O   0  0  0  0  0  0  0  0  0  0  0  0
 11 10  1  0
 11  5  1  0
 11 12  1  6
 11 13  1  0
 10  9  1  0
  9  8  1  0
  8  6  1  0
  6  5  1  0
  6  7  1  6
  5  4  1  0
  4  3  2  0
  3  2  1  0
  2 14  2  0
  2  1  1  0
 14 15  1  0
 15 16  2  0
 16 17  1  0
 17 19  2  0
 17 18  1  0
 19 20  1  0
 20 21  1  0
M  END
$$$$
