
     RDKit          3D

 21 21  0  0  0  0  0  0  0  0999 V2000
   -9.6140   -0.4630   -8.9180 C   0  0  0  0  0  0  0  0  0  0  0  0
   -8.4760    0.4990   -8.9110 C   0  0  0  0  0  0  0  0  0  0  0  0
   -7.4450    0.4430   -9.9520 C   0  0  0  0  0  0  0  0  0  0  0  0
   -7.5800    0.8070  -11.2060 C   0  0  0  0  0  0  0  0  0  0  0  0
   -6.4350    0.7140  -12.1270 C   0  0  0  0  0  0  0  0  0  0  0  0
   -6.5220    0.0370  -13.2390 C   0  0  1  0  0  0  0  0  0  0  0  0
   -7.3460    0.4930  -14.3980 C   0  0  0  0  0  0  0  0  0  0  0  0
   -5.6000   -1.1470  -13.2400 C   0  0  0  0  0  0  0  0  0  0  0  0
   -4.2060   -0.5510  -13.3680 C   0  0  0  0  0  0  0  0  0  0  0  0
   -3.8930    0.4540  -12.2450 C   0  0  0  0  0  0  0  0  0  0  0  0
   -5.0810    1.3490  -11.8940 C   0  0  1  0  0  0  0  0  0  0  0  0
   -4.9900    2.5740  -12.7720 C   0  0  0  0  0  0  0  0  0  0  0  0
   -4.9470    1.7250  -10.4360 C   0  0  0  0  0  0  0  0  0  0  0  0
   -8.3260    1.4060   -7.9520 C   0  0  0  0  0  0  0  0  0  0  0  0
   -9.2010    1.5390   -6.8130 C   0  0  0  0  0  0  0  0  0  0  0  0
   -8.7260    0.9260   -5.7340 C   0  0  0  0  0  0  0  0  0  0  0  0
   -9.3080    0.8380   -4.3940 C   0  0  0  0  0  0  0  0  0  0  0  0
  -10.3700    1.7810   -3.9680 C   0  0  0  0  0  0  0  0  0  0  0  0
   -8.8530   -0.0870   -3.5460 C   0  0  0  0  0  0  0  0  0  0  0  0
   -9.4170   -0.2040   -2.1530 C   0  0  0  0  0  0  0  0  0  0  0  0
   -8.6630   -1.1700   -1.4040 O   0  0  0  0  0  0  0  0  0  0  0  0
 11 10  1  0
 11  5  1  0
 11 12  1  6
 11 13  1  0
 10  9  1  0
  9  8  1  0
  8  6  1  0
  6  5  1  0
  6  7  1  6
  5  4  1  0
  4  3  2  0
  3  2  1  0
  2 14  2  0
  2  1  1  0
 14 15  1  0
 15 16  2  0
 16 17  1  0
 17 19  2  0
 17 18  1  0
 19 20  1  0
 20 21  1  0
M  END
$$$$
