
     RDKit          3D

 21 24  0  0  0  0  0  0  0  0999 V2000
  -14.8860  -28.9700   -9.6410 C   0  0  0  0  0  0  0  0  0  0  0  0
  -14.5450  -30.3100   -9.5890 C   0  0  0  0  0  0  0  0  0  0  0  0
  -14.4550  -30.9660   -8.3810 C   0  0  0  0  0  0  0  0  0  0  0  0
  -14.7520  -30.2520   -7.2300 C   0  0  0  0  0  0  0  0  0  0  0  0
  -14.6350  -30.9190   -5.8810 C   0  0  0  0  0  0  0  0  0  0  0  0
  -13.8330  -31.9320   -5.6360 N   0  0  0  0  0  0  0  0  0  0  0  0
  -13.9180  -32.2800   -4.3190 C   0  0  0  0  0  0  0  0  0  0  0  0
  -13.2860  -33.3000   -3.5650 C   0  0  0  0  0  0  0  0  0  0  0  0
  -13.5780  -33.4410   -2.2120 C   0  0  0  0  0  0  0  0  0  0  0  0
  -14.4860  -32.5940   -1.5760 C   0  0  0  0  0  0  0  0  0  0  0  0
  -15.1100  -31.6000   -2.3200 C   0  0  0  0  0  0  0  0  0  0  0  0
  -14.8220  -31.4600   -3.7030 C   0  0  0  0  0  0  0  0  0  0  0  0
  -15.2870  -30.5590   -4.7030 C   0  0  0  0  0  0  0  0  0  0  0  0
  -16.3250  -29.4510   -4.4790 C   0  0  0  0  0  0  0  0  0  0  0  0
  -15.7320  -28.2370   -3.9370 N   0  0  0  0  0  0  0  0  0  0  0  0
  -14.4360  -27.9750   -3.8310 C   0  0  0  0  0  0  0  0  0  0  0  0
  -14.3280  -26.7230   -3.2550 C   0  0  0  0  0  0  0  0  0  0  0  0
  -15.5650  -26.2930   -3.0460 N   0  0  0  0  0  0  0  0  0  0  0  0
  -16.4130  -27.2220   -3.4380 C   0  0  0  0  0  0  0  0  0  0  0  0
  -15.0650  -28.9080   -7.2780 C   0  0  0  0  0  0  0  0  0  0  0  0
  -15.1500  -28.2540   -8.4930 C   0  0  0  0  0  0  0  0  0  0  0  0
 11 10  2  0
 12 11  1  0
 10  9  1  0
  8  9  2  0
  7  8  1  0
 12  7  2  0
  6  7  1  0
 13 12  1  0
 13  5  2  0
 14 13  1  0
  5  4  1  0
  5  6  1  0
  4  3  2  0
  4 20  1  0
  3  2  1  0
  2  1  2  0
 21  1  1  0
 20 21  2  0
 15 14  1  0
 19 15  1  0
 18 19  2  0
 17 16  2  0
 17 18  1  0
 16 15  1  0
M  END
$$$$
