
     RDKit          3D

 21 24  0  0  0  0  0  0  0  0999 V2000
  -13.1144  -34.5452   -5.4462 C   0  0  0  0  0  0  0  0  0  0  0  0
  -14.3849  -34.1335   -5.2276 C   0  0  0  0  0  0  0  0  0  0  0  0
  -14.7717  -32.8016   -5.2619 C   0  0  0  0  0  0  0  0  0  0  0  0
  -13.7515  -31.8915   -5.5248 C   0  0  0  0  0  0  0  0  0  0  0  0
  -13.6985  -30.6413   -4.6693 C   0  0  0  0  0  0  0  0  0  0  0  0
  -12.9117  -30.5710   -3.5916 N   0  0  0  0  0  0  0  0  0  0  0  0
  -11.7855  -29.9348   -3.8988 C   0  0  0  0  0  0  0  0  0  0  0  0
  -10.4520  -30.1296   -3.4441 C   0  0  0  0  0  0  0  0  0  0  0  0
   -9.4214  -30.1418   -4.3756 C   0  0  0  0  0  0  0  0  0  0  0  0
   -9.6285  -29.6611   -5.7006 C   0  0  0  0  0  0  0  0  0  0  0  0
  -10.8697  -29.2717   -6.0391 C   0  0  0  0  0  0  0  0  0  0  0  0
  -11.9710  -29.3034   -5.1273 C   0  0  0  0  0  0  0  0  0  0  0  0
  -13.3889  -29.3197   -5.3352 C   0  0  0  0  0  0  0  0  0  0  0  0
  -14.2714  -28.1068   -5.2080 C   0  0  0  0  0  0  0  0  0  0  0  0
  -14.7642  -27.6351   -6.5106 N   0  0  0  0  0  0  0  0  0  0  0  0
  -14.4726  -26.4025   -7.0210 C   0  0  0  0  0  0  0  0  0  0  0  0
  -15.6804  -25.8756   -7.3662 C   0  0  0  0  0  0  0  0  0  0  0  0
  -16.5837  -26.8772   -7.4149 N   0  0  0  0  0  0  0  0  0  0  0  0
  -15.9404  -27.9683   -7.0230 C   0  0  0  0  0  0  0  0  0  0  0  0
  -12.5380  -32.3222   -6.0150 C   0  0  0  0  0  0  0  0  0  0  0  0
  -12.1306  -33.6273   -5.8211 C   0  0  0  0  0  0  0  0  0  0  0  0
 11 10  4  0
 12 11  4  0
 10  9  4  0
  8  9  4  0
  7  8  4  0
 12  7  4  0
  6  7  4  0
 13 12  4  0
 13  5  4  0
 14 13  1  0
  5  4  1  0
  5  6  4  0
  4  3  4  0
  4 20  4  0
  3  2  4  0
  2  1  4  0
 21  1  4  0
 20 21  4  0
 15 14  1  0
 19 15  4  0
 18 19  4  0
 17 16  4  0
 17 18  4  0
 16 15  4  0
M  END
$$$$
