
     RDKit          3D

 34 37  0  0  0  0  0  0  0  0999 V2000
   65.7022   49.0745    5.7757 H   0  0  0  0  0  0  0  0  0  0  0  0
   65.8650   48.2070    6.2870 N   0  0  0  0  0  0  0  0  0  0  0  0
   66.6830   48.1950    7.3230 C   0  0  0  0  0  0  0  0  0  0  0  0
   67.3160   49.3670    7.7080 N   0  0  0  0  0  0  0  0  0  0  0  0
   68.3160   49.4360    8.8060 C   0  0  2  0  0  0  0  0  0  0  0  0
   68.4240   50.9450    9.0980 C   0  0  0  0  0  0  0  0  0  0  0  0
   69.7010   48.9570    8.3180 C   0  0  0  0  0  0  0  0  0  0  0  0
   69.9090   48.4440    7.0380 C   0  0  0  0  0  0  0  0  0  0  0  0
   71.1680   48.0360    6.5790 C   0  0  0  0  0  0  0  0  0  0  0  0
   71.2590   47.4850    5.3530 N   0  0  0  0  0  0  0  0  0  0  0  0
   72.3440   46.9280    4.7810 C   0  0  0  0  0  0  0  0  0  0  0  0
   73.4980   46.9440    5.2260 O   0  0  0  0  0  0  0  0  0  0  0  0
   72.0750   46.2630    3.4260 C   0  0  0  0  0  0  0  0  0  0  0  0
   72.9940   45.3820    2.8670 C   0  0  0  0  0  0  0  0  0  0  0  0
   72.7420   44.8010    1.7000 N   0  0  0  0  0  0  0  0  0  0  0  0
   71.5900   45.0600    1.0450 C   0  0  0  0  0  0  0  0  0  0  0  0
   71.2600   44.5170   -0.1560 O   0  0  0  0  0  0  0  0  0  0  0  0
   72.2360   43.6860   -0.8150 C   0  0  0  0  0  0  0  0  0  0  0  0
   73.3430   44.5010   -1.3240 C   0  0  0  0  0  0  0  0  0  0  0  0
   74.2050   45.1590   -1.7240 C   0  0  0  0  0  0  0  0  0  0  0  0
   70.6740   45.9350    1.6110 C   0  0  0  0  0  0  0  0  0  0  0  0
   70.9320   46.5080    2.7720 N   0  0  0  0  0  0  0  0  0  0  0  0
   72.2610   48.1520    7.4550 C   0  0  0  0  0  0  0  0  0  0  0  0
   72.0630   48.6700    8.7330 C   0  0  0  0  0  0  0  0  0  0  0  0
   73.1020   48.7910    9.5940 F   0  0  0  0  0  0  0  0  0  0  0  0
   70.8120   49.0750    9.1590 C   0  0  0  0  0  0  0  0  0  0  0  0
   70.6860   49.5630   10.4050 F   0  0  0  0  0  0  0  0  0  0  0  0
   67.8610   48.6950   10.0740 C   0  0  2  0  0  0  0  0  0  0  0  0
   68.5280   47.3590   10.4580 C   0  0  0  0  0  0  0  0  0  0  0  0
   67.1050   47.3960    9.9030 C   0  0  1  0  0  0  0  0  0  0  0  0
   65.9410   47.2030   10.8440 C   0  0  0  0  0  0  0  0  0  0  0  0
   64.7410   47.6900   10.1890 O   0  0  0  0  0  0  0  0  0  0  0  0
   64.5310   49.0930   10.4070 C   0  0  0  0  0  0  0  0  0  0  0  0
   66.9320   46.7240    8.2280 S   0  0  0  0  0  0  0  0  0  0  0  0
 33 32  1  0
 32 31  1  0
 30 31  1  1
 30 28  1  0
 30 29  1  0
 30 34  1  0
 28 29  1  1
 28  5  1  0
 34  3  1  0
  3  2  2  0
  3  4  1  0
  4  5  1  0
  5  6  1  1
  5  7  1  0
  7  8  2  0
  7 26  1  0
  8  9  1  0
 26 27  1  0
 26 24  2  0
 24 25  1  0
 24 23  1  0
 23  9  2  0
  9 10  1  0
 10 11  1  0
 11 12  2  0
 11 13  1  0
 13 14  2  0
 13 22  1  0
 14 15  1  0
 15 16  2  0
 22 21  2  0
 21 16  1  0
 16 17  1  0
 17 18  1  0
 18 19  1  0
 19 20  3  0
  2  1  1  0
M  END
$$$$
