
     RDKit          3D

147155  0  0  0  0  0  0  0  0999 V2000
  190.2725  -19.8119   38.1740 C   0  0  0  0  0  0  0  0  0  0  0  0
  189.4902  -20.9258   38.8203 C   0  0  0  0  0  0  0  0  0  0  0  0
  188.3076  -20.7032   39.1179 O   0  0  0  0  0  0  0  0  0  0  0  0
  190.1953  -21.8443   39.6816 N   0  0  0  0  0  0  0  0  0  0  0  0
  191.1149  -21.2482   40.6574 C   0  0  0  0  0  0  0  0  0  0  0  0
  190.1328  -21.1951   41.8823 C   0  0  0  0  0  0  0  0  0  0  0  0
  189.7437  -22.6778   41.7961 C   0  0  0  0  0  0  0  0  0  0  0  0
  189.2592  -22.8719   40.3320 C   0  0  1  0  0  0  0  0  0  0  0  0
  187.8149  -22.3555   40.1844 C   0  0  0  0  0  0  0  0  0  0  0  0
  187.1343  -22.7280   39.2183 O   0  0  0  0  0  0  0  0  0  0  0  0
  187.3279  -21.6801   41.2445 N   0  0  0  0  0  0  0  0  0  0  0  0
  186.8940  -21.4385   42.3682 C   0  0  1  0  0  0  0  0  0  0  0  0
  187.7203  -20.5581   43.3613 C   0  0  0  0  0  0  0  0  0  0  0  0
  188.4624  -19.4712   42.5800 C   0  0  0  0  0  0  0  0  0  0  0  0
  187.6723  -19.2529   41.5117 C   0  0  0  0  0  0  0  0  0  0  0  0
  188.4742  -19.6734   40.1790 N   0  0  0  0  0  0  0  0  0  0  0  0
  189.8073  -18.4821   41.4625 C   0  0  0  0  0  0  0  0  0  0  0  0
  190.3625  -18.0372   40.2686 C   0  0  0  0  0  0  0  0  0  0  0  0
  191.0575  -19.0242   39.5254 C   0  0  0  0  0  0  0  0  0  0  0  0
  191.9995  -18.5830   38.1015 Cl  0  0  0  0  0  0  0  0  0  0  0  0
  190.7930  -20.4271   39.7502 C   0  0  0  0  0  0  0  0  0  0  0  0
  189.9020  -20.8023   40.7344 C   0  0  0  0  0  0  0  0  0  0  0  0
  189.8435  -19.8433   41.8882 C   0  0  0  0  0  0  0  0  0  0  0  0
  185.4442  -21.2848   42.7414 C   0  0  0  0  0  0  0  0  0  0  0  0
  184.9288  -20.1736   42.5206 O   0  0  0  0  0  0  0  0  0  0  0  0
  184.8132  -22.3032   43.3984 N   0  0  0  0  0  0  0  0  0  0  0  0
  185.3372  -23.6562   43.4068 C   0  0  2  0  0  0  0  0  0  0  0  0
  186.7842  -23.6319   43.9457 C   0  0  0  0  0  0  0  0  0  0  0  0
  187.4911  -23.4314   45.3156 C   0  0  0  0  0  0  0  0  0  0  0  0
  188.1836  -22.0839   45.5134 C   0  0  0  0  0  0  0  0  0  0  0  0
  189.1743  -22.1034   46.5939 N   0  0  0  0  0  0  0  0  0  0  0  0
  190.3194  -21.4182   46.5622 C   0  0  0  0  0  0  0  0  0  0  0  0
  190.9337  -21.2007   45.4091 N   0  0  0  0  0  0  0  0  0  0  0  0
  190.5420  -20.6025   47.5329 N   0  0  0  0  0  4  0  0  0  0  0  0
  185.1474  -24.4074   42.1256 C   0  0  0  0  0  0  0  0  0  0  0  0
  184.1182  -24.0378   41.4604 O   0  0  0  0  0  0  0  0  0  0  0  0
  186.2624  -24.8034   41.3432 N   0  0  0  0  0  0  0  0  0  0  0  0
  187.5409  -24.1264   41.5775 C   0  0  1  0  0  0  0  0  0  0  0  0
  188.5881  -24.1739   40.6793 C   0  0  0  0  0  0  0  0  0  0  0  0
  188.5483  -24.2054   39.1147 C   0  0  1  0  0  0  0  0  0  0  0  0
  187.0638  -23.9446   38.6254 C   0  0  0  0  0  0  0  0  0  0  0  0
  189.4991  -23.1679   38.4375 C   0  0  0  0  0  0  0  0  0  0  0  0
  187.4099  -23.4570   42.8606 C   0  0  0  0  0  0  0  0  0  0  0  0
  185.2916  -23.5083   41.2746 O   0  0  0  0  0  0  0  0  0  0  0  0
  186.2306  -22.7960   43.1955 N   0  0  0  0  0  0  0  0  0  0  0  0
  186.2415  -21.4487   43.7757 C   0  0  1  0  0  0  0  0  0  0  0  0
  187.7324  -21.5866   44.4990 C   0  0  0  0  0  0  0  0  0  0  0  0
  187.0824  -21.5963   46.2099 C   0  0  0  0  0  0  0  0  0  0  0  0
  187.6834  -22.9673   46.6724 C   0  0  0  0  0  0  0  0  0  0  0  0
  188.9366  -23.1262   45.9138 N   0  0  0  0  0  0  0  0  0  0  0  0
  189.6277  -22.1093   45.4621 C   0  0  0  0  0  0  0  0  0  0  0  0
  190.5783  -22.2846   44.5604 N   0  0  0  0  0  0  0  0  0  0  0  0
  189.3718  -20.9703   45.9390 N   0  0  0  0  0  4  0  0  0  0  0  0
  186.3962  -20.4057   42.6836 C   0  0  0  0  0  0  0  0  0  0  0  0
  185.5412  -20.7439   41.6435 O   0  0  0  0  0  0  0  0  0  0  0  0
  187.6612  -20.2963   42.1665 N   0  0  0  0  0  0  0  0  0  0  0  0
  188.8748  -20.5592   42.9271 C   0  0  1  0  0  0  0  0  0  0  0  0
  188.5697  -19.3968   43.8413 C   0  0  0  0  0  0  0  0  0  0  0  0
  188.9720  -17.9793   43.3395 C   0  0  0  0  0  0  0  0  0  0  0  0
  188.2140  -16.8975   44.1538 C   0  0  0  0  0  0  0  0  0  0  0  0
  189.0633  -15.5987   44.2751 C   0  0  0  0  0  0  0  0  0  0  0  0
  189.3942  -15.0656   42.9303 N   0  0  0  0  0  4  0  0  0  0  0  0
  188.7509  -21.8847   42.2183 C   0  0  0  0  0  0  0  0  0  0  0  0
  189.2751  -21.8490   41.0117 O   0  0  0  0  0  0  0  0  0  0  0  0
  187.5324  -22.4754   42.1680 N   0  0  0  0  0  0  0  0  0  0  0  0
  186.4554  -23.3941   42.0330 C   0  0  2  0  0  0  0  0  0  0  0  0
  186.2270  -24.5038   42.8427 C   0  0  0  0  0  0  0  0  0  0  0  0
  185.5733  -24.5101   44.2495 C   0  0  1  0  0  0  0  0  0  0  0  0
  186.3046  -23.7832   45.4015 C   0  0  0  0  0  0  0  0  0  0  0  0
  184.9333  -23.2712   45.8948 C   0  0  0  0  0  0  0  0  0  0  0  0
  184.3614  -23.5711   44.5025 C   0  0  0  0  0  0  0  0  0  0  0  0
  186.2255  -23.5733   40.4689 C   0  0  0  0  0  0  0  0  0  0  0  0
  186.0808  -22.3824   40.0028 O   0  0  0  0  0  0  0  0  0  0  0  0
  187.3832  -24.2299   40.1177 N   0  0  0  0  0  0  0  0  0  0  0  0
  188.0230  -25.1950   41.0012 C   0  0  0  0  0  0  0  0  0  0  0  0
  188.9346  -24.3210   41.8414 C   0  0  2  0  0  0  0  0  0  0  0  0
  188.9366  -24.6823   43.2366 O   0  0  0  0  0  0  0  0  0  0  0  0
  188.5689  -22.8796   41.5463 C   0  0  0  0  0  0  0  0  0  0  0  0
  187.1118  -22.8755   41.0392 C   0  0  1  0  0  0  0  0  0  0  0  0
  187.3315  -21.2226   40.1101 C   0  0  0  0  0  0  0  0  0  0  0  0
  186.6757  -21.5737   39.1193 O   0  0  0  0  0  0  0  0  0  0  0  0
  187.3221  -19.8940   40.4838 N   0  0  0  0  0  0  0  0  0  0  0  0
  187.4056  -18.4353   40.6549 C   0  0  2  0  0  0  0  0  0  0  0  0
  189.0006  -18.0266   39.9829 C   0  0  0  0  0  0  0  0  0  0  0  0
  189.6922  -17.2251   41.0799 C   0  0  0  0  0  0  0  0  0  0  0  0
  189.0889  -16.7325   42.0346 O   0  0  0  0  0  0  0  0  0  0  0  0
  191.0439  -17.1381   40.9703 O   0  0  0  0  0  1  0  0  0  0  0  0
  187.3808  -17.1624   41.6260 C   0  0  0  0  0  0  0  0  0  0  0  0
  187.6551  -16.1039   41.0549 O   0  0  0  0  0  0  0  0  0  0  0  0
  187.7429  -17.3883   42.8928 N   0  0  0  0  0  0  0  0  0  0  0  0
  187.7976  -18.4171   43.8207 C   0  0  1  0  0  0  0  0  0  0  0  0
  189.1386  -18.5586   44.5447 C   0  0  0  0  0  0  0  0  0  0  0  0
  190.0661  -17.5745   44.1189 O   0  0  0  0  0  0  0  0  0  0  0  0
  186.6183  -18.7185   44.6855 C   0  0  0  0  0  0  0  0  0  0  0  0
  185.6744  -17.9182   44.6647 O   0  0  0  0  0  0  0  0  0  0  0  0
  186.5901  -19.8599   45.4506 N   0  0  0  0  0  0  0  0  0  0  0  0
  187.6985  -20.8297   45.4890 C   0  0  2  0  0  0  0  0  0  0  0  0
  188.5688  -20.5533   44.2553 C   0  0  0  0  0  0  0  0  0  0  0  0
  189.9913  -20.2129   43.7908 C   0  0  0  0  0  0  0  0  0  0  0  0
  190.3543  -18.8435   43.5859 C   0  0  0  0  0  0  0  0  0  0  0  0
  190.7843  -18.4339   42.3306 C   0  0  0  0  0  0  0  0  0  0  0  0
  191.1992  -19.4180   41.3622 C   0  0  0  0  0  0  0  0  0  0  0  0
  191.3020  -20.7476   41.7834 C   0  0  0  0  0  0  0  0  0  0  0  0
  190.6891  -21.1903   42.9855 C   0  0  0  0  0  0  0  0  0  0  0  0
  186.9871  -22.2980   45.2056 C   0  0  0  0  0  0  0  0  0  0  0  0
  185.8605  -22.0886   44.7587 O   0  0  0  0  0  0  0  0  0  0  0  0
  187.9294  -22.8458   44.0956 N   0  0  0  0  0  0  0  0  0  0  0  0
  188.5697  -21.6056   43.6141 C   0  0  2  0  0  0  0  0  0  0  0  0
  189.5510  -21.0929   44.7231 C   0  0  0  0  0  0  0  0  0  0  0  0
  190.9876  -21.1754   44.1550 C   0  0  0  0  0  0  0  0  0  0  0  0
  191.3697  -20.1521   43.2055 C   0  0  0  0  0  0  0  0  0  0  0  0
  192.3640  -19.2371   43.5497 C   0  0  0  0  0  0  0  0  0  0  0  0
  193.3302  -19.6143   44.4871 C   0  0  0  0  0  0  0  0  0  0  0  0
  193.0106  -20.6573   45.4292 C   0  0  0  0  0  0  0  0  0  0  0  0
  191.9948  -19.8122   46.4892 C   0  0  0  0  0  0  0  0  0  0  0  0
  191.2424  -19.0472   45.5236 C   0  0  0  0  0  0  0  0  0  0  0  0
  191.3316  -19.4426   44.1839 C   0  0  0  0  0  0  0  0  0  0  0  0
  192.3676  -20.4310   43.8277 C   0  0  0  0  0  0  0  0  0  0  0  0
  192.0972  -21.6338   44.9556 C   0  0  0  0  0  0  0  0  0  0  0  0
  186.8385  -20.7610   44.6213 C   0  0  0  0  0  0  0  0  0  0  0  0
  186.1712  -20.1218   43.8402 O   0  0  0  0  0  0  0  0  0  0  0  0
  187.2042  -22.0634   43.3709 N   0  0  0  0  0  0  0  0  0  0  0  0
  187.0308  -19.3715   42.6846 C   0  0  1  0  0  0  0  0  0  0  0  0
  187.2782  -19.7123   44.1349 C   0  0  0  0  0  0  0  0  0  0  0  0
  187.9422  -18.6466   45.0443 C   0  0  0  0  0  0  0  0  0  0  0  0
  187.0094  -17.4869   45.4546 C   0  0  0  0  0  0  0  0  0  0  0  0
  186.3425  -16.8387   44.2103 C   0  0  0  0  0  0  0  0  0  0  0  0
  187.1885  -15.9063   43.5221 N   0  0  0  0  0  4  0  0  0  0  0  0
  187.3168  -20.4360   41.5949 C   0  0  0  0  0  0  0  0  0  0  0  0
  186.4109  -20.6337   40.7920 O   0  0  0  0  0  0  0  0  0  0  0  0
  188.6652  -20.3896   41.1694 N   0  0  0  0  0  0  0  0  0  0  0  0
  189.1012  -19.0536   40.6495 C   0  0  2  0  0  0  0  0  0  0  0  0
  188.7272  -17.9571   41.7475 C   0  0  0  0  0  0  0  0  0  0  0  0
  187.2314  -18.2342   42.1851 C   0  0  0  0  0  0  0  0  0  0  0  0
  186.3879  -16.9516   42.3675 C   0  0  0  0  0  0  0  0  0  0  0  0
  185.4963  -16.9644   43.1908 O   0  0  0  0  0  0  0  0  0  0  0  0
  186.3658  -16.1651   41.2934 O   0  0  0  0  0  1  0  0  0  0  0  0
  188.1855  -18.7500   39.4093 C   0  0  0  0  0  0  0  0  0  0  0  0
  188.6468  -17.8825   38.7068 O   0  0  0  0  0  0  0  0  0  0  0  0
  186.7744  -18.7847   39.6087 N   0  0  0  0  0  0  0  0  0  0  0  0
  186.5147  -19.2313   41.0885 C   0  0  0  0  0  0  0  0  0  0  0  0
  188.1702  -18.9724   41.4536 C   0  0  0  0  0  0  0  0  0  0  0  0
  188.1971  -17.4869   40.7732 C   0  0  0  0  0  0  0  0  0  0  0  0
  186.6336  -17.2468   40.6604 C   0  0  2  0  0  0  0  0  0  0  0  0
  185.9113  -18.0039   41.7781 C   0  0  0  0  0  0  0  0  0  0  0  0
  186.3693  -17.9852   43.0513 N   0  0  0  0  0  0  0  0  0  0  0  0
  184.9576  -18.7174   41.4772 O   0  0  0  0  0  0  0  0  0  0  0  0
  2  3  2  0
  2  1  1  0
  2  4  1  0
  4  8  1  0
  4  5  1  0
  8  9  1  1
  8  7  1  0
  9 10  2  0
  9 11  1  0
  7  6  1  0
  6  5  1  0
 11 12  1  0
 12 13  1  6
 12 24  1  0
 13 14  1  0
 14 23  4  0
 14 15  4  0
 23 22  4  0
 23 17  4  0
 22 21  4  0
 17 16  4  0
 17 18  4  0
 16 15  4  0
 18 19  4  0
 19 20  1  0
 19 21  4  0
 24 25  2  0
 24 26  1  0
 26 27  1  0
 27 35  1  0
 27 28  1  1
 35 36  2  0
 35 37  1  0
 28 29  1  0
 29 30  1  0
 30 31  1  0
 31 32  1  0
 32 34  2  0
 32 33  1  0
 37 38  1  0
 38 43  1  0
 38 39  1  6
 43 44  2  0
 43 45  1  0
 39 40  1  0
 40 41  1  1
 40 42  1  0
 45 46  1  0
 46 54  1  0
 46 47  1  1
 54 55  2  0
 54 56  1  0
 47 48  1  0
 48 49  1  0
 49 50  1  0
 50 51  1  0
 51 53  2  0
 51 52  1  0
 56 57  1  0
 57 63  1  0
 57 58  1  1
 63 64  2  0
 63 65  1  0
 58 59  1  0
 59 60  1  0
 60 61  1  0
 61 62  1  0
 65 66  1  0
 66 67  1  1
 66 72  1  0
 68 67  1  6
 72 73  2  0
 72 74  1  0
 68 69  1  0
 68 71  1  0
 69 70  1  0
 71 70  1  0
 74 79  1  0
 74 75  1  0
 79 80  1  6
 79 78  1  0
 80 81  2  0
 80 82  1  0
 78 76  1  0
 76 75  1  0
 76 77  1  1
 82 83  1  0
 83 88  1  0
 83 84  1  6
 88 89  2  0
 88 90  1  0
 84 85  1  0
 85 87  1  0
 85 86  2  0
 90 91  1  0
 91 94  1  0
 91 92  1  1
 94 95  2  0
 94 96  1  0
 92 93  1  0
 96 97  1  0
 97105  1  0
 97 98  1  1
105106  2  0
105107  1  0
 98 99  1  0
 99100  4  0
 99104  4  0
100101  4  0
104103  4  0
101102  4  0
103102  4  0
107108  1  0
108120  1  0
108109  1  6
120121  2  0
120122  1  0
109110  1  0
110111  4  0
110119  4  0
111112  4  0
112113  4  0
119114  4  0
119118  4  0
114113  4  0
114115  4  0
118117  4  0
117116  4  0
116115  4  0
122123  1  0
123129  1  0
123124  1  1
129130  2  0
129131  1  0
124125  1  0
125126  1  0
126127  1  0
127128  1  0
131132  1  0
132138  1  0
132133  1  6
138139  2  0
138140  1  0
133134  1  0
134135  1  0
135137  1  0
135136  2  0
140144  1  0
140141  1  0
144145  1  6
144143  1  0
145147  2  0
145146  1  0
143142  1  0
142141  1  0
M  CHG  6  34   1  53   1  62   1  87  -1 128   1 137  -1
M  END
$$$$
