
     RDKit          3D

125134  0  0  0  0  0  0  0  0999 V2000
  -14.6840   10.9120  -41.1700 C   0  0  0  0  0  0  0  0  0  0  0  0
  -15.8940   10.1000  -41.5170 C   0  0  0  0  0  0  0  0  0  0  0  0
  -16.5390    9.5050  -40.6660 O   0  0  0  0  0  0  0  0  0  0  0  0
  -16.2250   10.0590  -42.8060 N   0  0  0  0  0  0  0  0  0  0  0  0
  -17.5390    9.6260  -43.2270 C   0  0  0  0  0  0  0  0  0  0  0  0
  -17.5740    8.2730  -43.9110 C   0  0  0  0  0  0  0  0  0  0  0  0
  -18.6090    7.8530  -44.4080 O   0  0  0  0  0  0  0  0  0  0  0  0
  -16.4320    7.5840  -43.9290 N   0  0  0  0  0  0  0  0  0  0  0  0
  -16.3630    6.2310  -44.4810 C   0  0  1  0  0  0  0  0  0  0  0  0
  -15.5620    6.2460  -45.7800 C   0  0  0  0  0  0  0  0  0  0  0  0
  -15.4770    4.8820  -46.2840 N   0  0  0  0  0  0  0  0  0  0  0  0
  -14.3840    4.1780  -46.5820 C   0  0  0  0  0  0  0  0  0  0  0  0
  -14.8460    2.9950  -47.0810 C   0  0  0  0  0  0  0  0  0  0  0  0
  -16.2060    3.0340  -47.0520 N   0  0  0  0  0  0  0  0  0  0  0  0
  -16.5880    4.1850  -46.5640 N   0  0  0  0  0  0  0  0  0  0  0  0
  -14.0870    1.8610  -47.6150 C   0  0  0  0  0  0  0  0  0  0  0  0
  -14.7060    0.6430  -47.8740 C   0  0  0  0  0  0  0  0  0  0  0  0
  -13.9620   -0.4190  -48.3810 C   0  0  0  0  0  0  0  0  0  0  0  0
  -14.6310   -1.6990  -48.7010 C   0  0  0  0  0  0  0  0  0  0  0  0
  -13.8510   -2.5730  -49.1810 O   0  0  0  0  0  0  0  0  0  0  0  0
  -15.8190   -1.8700  -48.5420 O   0  0  0  0  0  1  0  0  0  0  0  0
  -12.5990   -0.2640  -48.6180 C   0  0  0  0  0  0  0  0  0  0  0  0
  -11.9840    0.9580  -48.3630 C   0  0  0  0  0  0  0  0  0  0  0  0
  -12.7310    2.0090  -47.8590 C   0  0  0  0  0  0  0  0  0  0  0  0
  -10.5690    1.1740  -48.6790 C   0  0  0  0  0  0  0  0  0  0  0  0
   -9.6120    0.3140  -49.1250 C   0  0  0  0  0  0  0  0  0  0  0  0
   -8.5250    1.0700  -49.3100 N   0  0  0  0  0  0  0  0  0  0  0  0
   -8.7630    2.3470  -48.9750 N   0  0  0  0  0  0  0  0  0  0  0  0
  -10.0070    2.4150  -48.5960 N   0  0  0  0  0  0  0  0  0  0  0  0
   -7.2390    0.6810  -49.8590 C   0  0  0  0  0  0  0  0  0  0  0  0
   -6.2340    0.2510  -48.7920 C   0  0  1  0  0  0  0  0  0  0  0  0
   -4.9140    0.4160  -49.4870 C   0  0  0  0  0  0  0  0  0  0  0  0
   -3.9660    0.9380  -48.9110 O   0  0  0  0  0  0  0  0  0  0  0  0
   -4.8790   -0.0250  -50.7470 N   0  0  0  0  0  0  0  0  0  0  0  0
   -3.7890    0.3040  -51.6320 C   0  0  0  0  0  0  0  0  0  0  0  0
   -2.4890   -0.1810  -51.0200 C   0  0  0  0  0  0  0  0  0  0  0  0
   -2.4920   -0.8370  -49.9840 O   0  0  0  0  0  0  0  0  0  0  0  0
   -1.3780    0.1330  -51.6770 N   0  0  0  0  0  0  0  0  0  0  0  0
   -0.0940   -0.3620  -51.2330 C   0  0  0  0  0  0  0  0  0  0  0  0
    0.1680   -1.8150  -51.5630 C   0  0  0  0  0  0  0  0  0  0  0  0
    1.4270   -2.1780  -51.7470 N   0  0  0  0  0  0  0  0  0  0  0  0
   -0.7790   -2.5990  -51.6540 O   0  0  0  0  0  0  0  0  0  0  0  0
   -6.2930    1.0840  -47.5860 N   0  0  2  0  0  4  0  0  0  0  0  0
   -5.6390    1.2570  -47.2480 O   0  0  0  0  0  0  0  0  0  0  0  0
   -5.8910    0.6250  -46.2020 C   0  0  0  0  0  0  0  0  0  0  0  0
   -5.9160   -0.6170  -46.0880 O   0  0  0  0  0  0  0  0  0  0  0  0
   -6.1970    1.4480  -44.9450 C   0  0  2  0  0  0  0  0  0  0  0  0
   -5.1920    1.1490  -43.8260 C   0  0  0  0  0  0  0  0  0  0  0  0
   -3.7740    1.2660  -44.2750 C   0  0  0  0  0  0  0  0  0  0  0  0
   -2.9970    0.4320  -44.9990 C   0  0  0  0  0  0  0  0  0  0  0  0
   -1.7740    1.0280  -45.1400 N   0  0  0  0  0  0  0  0  0  0  0  0
   -1.8010    2.2130  -44.5200 C   0  0  0  0  0  0  0  0  0  0  0  0
   -2.9990    2.3760  -43.9990 N   0  0  0  0  0  0  0  0  0  0  0  0
   -7.5970    1.2020  -44.5050 N   0  0  0  0  0  0  0  0  0  0  0  0
   -8.4730    2.2000  -44.3370 C   0  0  0  0  0  0  0  0  0  0  0  0
   -8.2030    3.3900  -44.5080 O   0  0  0  0  0  0  0  0  0  0  0  0
   -9.8780    1.8010  -43.8980 C   0  0  2  0  0  0  0  0  0  0  0  0
  -10.7230    1.5140  -45.1180 C   0  0  0  0  0  0  0  0  0  0  0  0
  -12.0260    0.8380  -44.8310 C   0  0  0  0  0  0  0  0  0  0  0  0
  -13.1800    1.4350  -44.4150 C   0  0  0  0  0  0  0  0  0  0  0  0
  -14.1920    0.5080  -44.3480 N   0  0  0  0  0  0  0  0  0  0  0  0
  -13.7050   -0.7160  -44.7250 C   0  0  0  0  0  0  0  0  0  0  0  0
  -14.3490   -1.9580  -44.8310 C   0  0  0  0  0  0  0  0  0  0  0  0
  -13.5930   -3.0280  -45.2680 C   0  0  0  0  0  0  0  0  0  0  0  0
  -12.2410   -2.8790  -45.6180 C   0  0  0  0  0  0  0  0  0  0  0  0
  -11.6010   -1.6580  -45.4900 C   0  0  0  0  0  0  0  0  0  0  0  0
  -12.3470   -0.5370  -45.0720 C   0  0  0  0  0  0  0  0  0  0  0  0
  -10.5450    2.8180  -43.0840 N   0  0  0  0  0  0  0  0  0  0  0  0
  -10.8470    2.6160  -41.7900 C   0  0  0  0  0  0  0  0  0  0  0  0
  -10.5470    1.5620  -41.1770 O   0  0  0  0  0  0  0  0  0  0  0  0
  -11.5720    3.7630  -41.0670 C   0  0  2  0  0  0  0  0  0  0  0  0
  -10.6080    4.9310  -40.8630 C   0  0  0  0  0  0  0  0  0  0  0  0
  -11.3090    6.2390  -40.5200 C   0  0  0  0  0  0  0  0  0  0  0  0
  -10.3630    7.2450  -39.8790 C   0  0  0  0  0  0  0  0  0  0  0  0
   -9.5930    8.1080  -40.8620 C   0  0  0  0  0  0  0  0  0  0  0  0
   -8.7350    9.1120  -40.1700 N   0  0  0  0  0  4  0  0  0  0  0  0
  -11.9960    3.2110  -39.7810 N   0  0  0  0  0  0  0  0  0  0  0  0
  -13.0750    2.4700  -39.6270 C   0  0  0  0  0  0  0  0  0  0  0  0
  -13.8570    2.2020  -40.5270 O   0  0  0  0  0  0  0  0  0  0  0  0
  -13.2390    1.7950  -38.2690 C   0  0  2  0  0  0  0  0  0  0  0  0
  -12.7610    0.3390  -38.4710 C   0  0  0  0  0  0  0  0  0  0  0  0
  -12.6610   -0.4750  -37.2010 C   0  0  0  0  0  0  0  0  0  0  0  0
  -11.5290   -0.3940  -36.3990 C   0  0  0  0  0  0  0  0  0  0  0  0
  -11.4220   -1.1740  -35.2280 C   0  0  0  0  0  0  0  0  0  0  0  0
  -12.4400   -2.0310  -34.8890 C   0  0  0  0  0  0  0  0  0  0  0  0
  -13.5610   -2.1420  -35.6800 C   0  0  0  0  0  0  0  0  0  0  0  0
  -13.6590   -1.3800  -36.8600 C   0  0  0  0  0  0  0  0  0  0  0  0
  -14.6240    1.8190  -37.8340 N   0  0  0  0  0  0  0  0  0  0  0  0
  -15.0980    2.8740  -37.1340 C   0  0  0  0  0  0  0  0  0  0  0  0
  -14.3980    3.8400  -36.8320 O   0  0  0  0  0  0  0  0  0  0  0  0
  -16.5470    2.8430  -36.7000 C   0  0  0  0  0  0  0  0  0  0  0  0
  -17.3870    1.7740  -37.2190 N   0  0  0  0  0  0  0  0  0  0  0  0
  -17.5320    0.5740  -36.6480 C   0  0  0  0  0  0  0  0  0  0  0  0
  -16.9030    0.2030  -35.6510 O   0  0  0  0  0  0  0  0  0  0  0  0
  -18.4790   -0.3730  -37.3870 C   0  0  2  0  0  0  0  0  0  0  0  0
  -18.2670   -1.8560  -37.0090 C   0  0  0  0  0  0  0  0  0  0  0  0
  -19.2820   -2.7780  -37.6390 C   0  0  0  0  0  0  0  0  0  0  0  0
  -20.6220   -2.7290  -37.2680 C   0  0  0  0  0  0  0  0  0  0  0  0
  -21.5570   -3.5990  -37.8220 C   0  0  0  0  0  0  0  0  0  0  0  0
  -21.1480   -4.5430  -38.7480 C   0  0  0  0  0  0  0  0  0  0  0  0
  -22.0650   -5.4100  -39.2970 O   0  0  0  0  0  0  0  0  0  0  0  0
  -19.8200   -4.6160  -39.1220 C   0  0  0  0  0  0  0  0  0  0  0  0
  -18.8980   -3.7250  -38.5760 C   0  0  0  0  0  0  0  0  0  0  0  0
  -18.4090   -0.1640  -38.8370 N   0  0  0  0  0  0  0  0  0  0  0  0
  -17.2540   -0.1500  -39.5320 C   0  0  0  0  0  0  0  0  0  0  0  0
  -16.1290   -0.2750  -39.0120 O   0  0  0  0  0  0  0  0  0  0  0  0
  -17.3730    0.1550  -41.0170 C   0  0  2  0  0  0  0  0  0  0  0  0
  -16.8400   -1.0070  -41.8720 C   0  0  0  0  0  0  0  0  0  0  0  0
  -17.6630   -2.3060  -41.8270 C   0  0  1  0  0  0  0  0  0  0  0  0
  -19.1350   -2.0830  -42.2020 C   0  0  0  0  0  0  0  0  0  0  0  0
  -17.0510   -3.3660  -42.7320 C   0  0  0  0  0  0  0  0  0  0  0  0
  -16.6290    1.3880  -41.1760 N   0  0  0  0  0  0  0  0  0  0  0  0
  -17.1830    2.5290  -41.6410 C   0  0  0  0  0  0  0  0  0  0  0  0
  -18.3030    2.5760  -42.1460 O   0  0  0  0  0  0  0  0  0  0  0  0
  -16.3340    3.7810  -41.6130 C   0  0  2  0  0  0  0  0  0  0  0  0
  -16.3960    4.4850  -40.2400 C   0  0  0  0  0  0  0  0  0  0  0  0
  -15.3990    5.6340  -40.0990 C   0  0  0  0  0  0  0  0  0  0  0  0
  -15.5460    6.4020  -38.8040 C   0  0  0  0  0  0  0  0  0  0  0  0
  -14.5910    7.5090  -38.6750 N   0  0  0  0  0  0  0  0  0  0  0  0
  -13.5380    7.5150  -37.8600 C   0  0  0  0  0  0  0  0  0  0  0  0
  -12.7450    8.5810  -37.7930 N   0  0  0  0  0  0  0  0  0  0  0  0
  -13.2620    6.4540  -37.1140 N   0  0  0  0  0  4  0  0  0  0  0  0
  -16.8710    4.6690  -42.6340 N   0  0  0  0  0  0  0  0  0  0  0  0
  -15.7290    5.1840  -43.4730 C   0  0  0  0  0  0  0  0  0  0  0  0
  -14.5590    4.9990  -43.4920 O   0  0  0  0  0  0  0  0  0  0  0  0
123115  1  0
124123  1  0
115113  1  0
115116  1  1
113114  2  0
113112  1  0
116117  1  0
117118  1  0
118119  1  0
119120  1  0
120122  2  0
120121  1  0
112107  1  0
107105  1  0
107108  1  6
105106  2  0
105104  1  0
108109  1  0
109110  1  6
109111  1  0
 95104  1  0
 93 95  1  0
 95 96  1  6
 93 94  2  0
 92 93  1  0
 96 97  1  0
 97 98  2  0
 97103  1  0
 98 99  1  0
103102  2  0
 99100  2  0
102100  1  0
100101  1  0
 91 92  1  0
 89 91  1  0
 89 90  2  0
 88 89  1  0
 80 88  1  0
 78 80  1  0
 80 81  1  6
 78 79  2  0
 77 78  1  0
 81 82  1  0
 82 83  2  0
 82 87  1  0
 83 84  1  0
 87 86  2  0
 84 85  2  0
 86 85  1  0
 71 77  1  0
 69 71  1  0
 71 72  1  1
 69 70  2  0
 68 69  1  0
 72 73  1  0
 73 74  1  0
 74 75  1  0
 75 76  1  0
 57 68  1  0
 55 57  1  0
 57 58  1  6
 55 56  2  0
 54 55  1  0
 58 59  1  0
 59 60  2  0
 59 67  1  0
 60 61  1  0
 67 62  2  0
 67 66  1  0
 62 61  1  0
 62 63  1  0
 66 65  2  0
 63 64  2  0
 65 64  1  0
 47 54  1  0
 45 47  1  0
 47 48  1  1
 45 46  1  0
 44 45  1  0
 43 45  1  0
 48 49  1  0
 49 53  1  0
 49 50  2  0
 53 52  2  0
 50 51  1  0
 51 52  1  0
 43 44  1  6
  6  5  1  0
  5  4  1  0
 11 10  1  0
 12 11  1  0
 11 15  1  0
  8  6  1  0
  6  7  2  0
 10  9  1  0
 19 21  1  0
  9  8  1  1
  9124  1  0
 22 18  1  0
 18 17  2  0
 18 19  1  0
 23 22  2  0
 23 24  1  0
 25 23  1  0
 24 16  2  0
 13 14  1  0
 14 15  2  0
 16 17  1  0
 16 13  1  0
 13 12  2  0
124125  2  0
  4  2  1  0
  2  1  1  0
  2  3  2  0
 19 20  2  0
 40 42  2  0
 36 37  2  0
 32 33  2  0
 27 28  1  0
 27 26  1  0
 30 27  1  0
 31 43  1  0
 34 32  1  0
 35 34  1  0
 38 36  1  0
 39 38  1  0
 40 41  1  0
 28 29  2  0
 25 29  1  0
 26 25  2  0
 31 30  1  0
 31 32  1  6
 36 35  1  0
 39 40  1  0
M  CHG  4  21  -1  43   1  76   1 122   1
M  END
$$$$
