
     RDKit          3D

 30 33  0  0  0  0  0  0  0  0999 V2000
   -0.6497  -13.6138   62.1886 N   0  0  0  0  0  0  0  0  0  0  0  0
   -0.7758  -14.9500   62.3176 C   0  0  0  0  0  0  0  0  0  0  0  0
    0.1571  -15.6670   61.7156 N   0  0  0  0  0  4  0  0  0  0  0  0
   -1.7120  -15.6274   63.2195 C   0  0  0  0  0  0  0  0  0  0  0  0
   -2.1750  -16.8757   62.8166 C   0  0  0  0  0  0  0  0  0  0  0  0
   -3.3044  -17.4668   63.4406 C   0  0  0  0  0  0  0  0  0  0  0  0
   -4.0047  -16.7197   64.3907 C   0  0  0  0  0  0  0  0  0  0  0  0
   -5.2557  -17.1578   64.7132 N   0  0  0  0  0  0  0  0  0  0  0  0
   -5.5942  -17.9375   65.8827 C   0  0  0  0  0  0  0  0  0  0  0  0
   -5.2875  -17.1950   67.1316 C   0  0  0  0  0  0  0  0  0  0  0  0
   -5.9685  -17.3206   68.2805 N   0  0  0  0  0  0  0  0  0  0  0  0
   -5.1153  -16.9306   69.2851 C   0  0  0  0  0  0  0  0  0  0  0  0
   -5.4344  -17.1748   70.7199 C   0  0  0  0  0  0  0  0  0  0  0  0
   -5.0335  -16.2017   71.6839 C   0  0  0  0  0  0  0  0  0  0  0  0
   -4.9086  -16.5892   73.0056 C   0  0  0  0  0  0  0  0  0  0  0  0
   -5.3698  -17.8453   73.4074 C   0  0  0  0  0  0  0  0  0  0  0  0
   -5.8186  -18.7447   72.5177 C   0  0  0  0  0  0  0  0  0  0  0  0
   -5.9599  -18.3760   71.1458 C   0  0  0  0  0  0  0  0  0  0  0  0
   -3.9804  -16.5229   68.6764 C   0  0  0  0  0  0  0  0  0  0  0  0
   -4.1126  -16.5457   67.3286 N   0  0  0  0  0  0  0  0  0  0  0  0
   -3.5213  -15.5449   64.8857 C   0  0  0  0  0  0  0  0  0  0  0  0
   -2.3376  -15.0053   64.3062 C   0  0  0  0  0  0  0  0  0  0  0  0
   -1.6202  -13.9664   64.9030 O   0  0  0  0  0  0  0  0  0  0  0  0
   -1.6183  -13.8327   66.3281 C   0  0  0  0  0  0  0  0  0  0  0  0
   -2.8252  -12.9981   66.7838 C   0  0  0  0  0  0  0  0  0  0  0  0
   -3.2736  -13.1025   68.1122 C   0  0  0  0  0  0  0  0  0  0  0  0
   -3.7837  -11.9783   68.7158 C   0  0  0  0  0  0  0  0  0  0  0  0
   -4.0239  -10.8940   67.9636 C   0  0  0  0  0  0  0  0  0  0  0  0
   -3.7639  -10.8254   66.6272 N   0  0  0  0  0  0  0  0  0  0  0  0
   -3.2959  -11.9260   66.0747 C   0  0  0  0  0  0  0  0  0  0  0  0
  9 10  1  0
 10 11  4  0
 10 20  4  0
 19 12  4  0
 20 19  4  0
 13 18  4  0
 12 13  1  0
 13 14  4  0
 14 15  4  0
 15 16  4  0
 18 17  4  0
 21 22  4  0
  7 21  4  0
 22  4  4  0
 22 23  1  0
 23 24  1  0
 24 25  1  0
 25 26  4  0
 26 27  4  0
 27 28  4  0
 28 29  4  0
  2  1  1  0
  2  3  2  0
  4  2  1  0
  5  4  4  0
  6  5  4  0
  7  6  4  0
  8  7  1  0
  8  9  1  0
 11 12  4  0
 16 17  4  0
 25 30  4  0
 29 30  4  0
M  CHG  1   3   1
M  END
$$$$
