
     RDKit          3D

 39 43  0  0  0  0  0  0  0  0999 V2000
  -21.7360    5.5120   -0.4350 O   0  0  0  0  0  0  0  0  0  0  0  0
  -20.3550    5.6180   -0.1210 C   0  0  0  0  0  0  0  0  0  0  0  0
  -19.7290    6.7280   -0.9680 C   0  0  1  0  0  0  0  0  0  0  0  0
  -20.3310    7.9370   -0.5600 O   0  0  0  0  0  0  0  0  0  0  0  0
  -19.9020    9.0480   -1.3230 C   0  0  1  0  0  0  0  0  0  0  0  0
  -20.6620   10.5350   -0.5780 S   0  0  0  0  0  0  0  0  0  0  0  0
  -22.3800   10.5680   -1.0630 C   0  0  0  0  0  0  0  0  0  0  0  0
  -23.1940    9.4620   -0.4020 C   0  0  1  0  0  0  0  0  0  0  0  0
  -23.0580    9.5220    1.0390 O   0  0  0  0  0  0  0  0  0  0  0  0
  -24.6900    9.6490   -0.7870 C   0  0  0  0  0  0  0  0  0  0  0  0
  -25.6210    8.8490   -0.0010 N   0  0  0  0  0  0  0  0  0  0  0  0
  -26.2110    9.2450    1.2000 C   0  0  0  0  0  0  0  0  0  0  0  0
  -27.0330    8.2030    1.6430 C   0  0  0  0  0  0  0  0  0  0  0  0
  -27.8580    8.1040    2.8760 C   0  0  0  0  0  0  0  0  0  0  0  0
  -28.6090    6.9840    3.2580 C   0  0  0  0  0  0  0  0  0  0  0  0
  -29.3540    6.9480    4.4490 C   0  0  0  0  0  0  0  0  0  0  0  0
  -29.3780    8.0200    5.3320 C   0  0  0  0  0  0  0  0  0  0  0  0
  -28.6220    9.1270    4.9640 C   0  0  0  0  0  0  0  0  0  0  0  0
  -28.6160   10.1790    5.7850 F   0  0  0  0  0  0  0  0  0  0  0  0
  -27.8770    9.1760    3.7800 C   0  0  0  0  0  0  0  0  0  0  0  0
  -26.8840    7.1960    0.6500 N   0  0  0  0  0  0  0  0  0  0  0  0
  -26.0710    7.5820   -0.2840 N   0  0  0  0  0  0  0  0  0  0  0  0
  -18.3810    9.2680   -1.1770 C   0  0  2  0  0  0  0  0  0  0  0  0
  -17.9540   10.2350   -2.1030 O   0  0  0  0  0  0  0  0  0  0  0  0
  -17.6150    8.0250   -1.3500 C   0  0  1  0  0  0  0  0  0  0  0  0
  -16.2650    8.0700   -1.3940 N   0  0  0  0  0  0  0  0  0  0  0  0
  -15.4920    8.4100   -0.2840 C   0  0  0  0  0  0  0  0  0  0  0  0
  -14.1720    8.3520   -0.6580 C   0  0  0  0  0  0  0  0  0  0  0  0
  -12.9780    8.6000    0.1090 C   0  0  0  0  0  0  0  0  0  0  0  0
  -11.7440    8.8730   -0.4900 C   0  0  0  0  0  0  0  0  0  0  0  0
  -10.5980    9.1060    0.2560 C   0  0  0  0  0  0  0  0  0  0  0  0
  -10.6280    9.0580    1.6380 C   0  0  0  0  0  0  0  0  0  0  0  0
  -11.8570    8.7780    2.2210 C   0  0  0  0  0  0  0  0  0  0  0  0
  -11.9110    8.7110    3.5520 F   0  0  0  0  0  0  0  0  0  0  0  0
  -13.0050    8.5390    1.4990 C   0  0  0  0  0  0  0  0  0  0  0  0
  -14.2080    7.9680   -2.0010 N   0  0  0  0  0  0  0  0  0  0  0  0
  -15.4230    7.8040   -2.3870 N   0  0  0  0  0  0  0  0  0  0  0  0
  -18.2140    6.8110   -0.7220 C   0  0  1  0  0  0  0  0  0  0  0  0
  -17.9850    7.0020    0.6660 O   0  0  0  0  0  0  0  0  0  0  0  0
  3 38  1  0
 25 38  1  0
 38 39  1  1
  5 23  1  0
  5  4  1  0
  5  6  1  1
  8  7  1  0
  7  6  1  0
 10  8  1  0
 11 10  1  0
 14 20  2  0
 13 14  1  0
 14 15  1  0
 20 18  1  0
 18 17  2  0
 18 19  1  0
 16 17  1  0
 15 16  2  0
 29 35  2  0
 35 33  1  0
 29 30  1  0
 28 29  1  0
 30 31  2  0
 31 32  1  0
 33 32  2  0
 33 34  1  0
 27 28  2  0
 28 36  1  0
 26 27  1  0
  3  2  1  1
  4  3  1  0
 23 25  1  0
 25 26  1  1
 23 24  1  6
  2  1  1  0
  8  9  1  1
 12 11  1  0
 12 13  2  0
 36 37  2  0
 37 26  1  0
 11 22  1  0
 22 21  2  0
 21 13  1  0
M  END
$$$$
