
     RDKit          3D

 39 43  0  0  0  0  0  0  0  0999 V2000
  -22.7951    5.6608    0.2739 O   0  0  0  0  0  0  0  0  0  0  0  0
  -21.3481    5.5749    0.3366 C   0  0  0  0  0  0  0  0  0  0  0  0
  -20.7906    6.2692   -0.9503 C   0  0  1  0  0  0  0  0  0  0  0  0
  -21.2874    7.6086   -0.9259 O   0  0  0  0  0  0  0  0  0  0  0  0
  -20.8899    8.3214   -2.0827 C   0  0  1  0  0  0  0  0  0  0  0  0
  -21.5967    9.9734   -1.9259 S   0  0  0  0  0  0  0  0  0  0  0  0
  -23.2355    9.5721   -1.3450 C   0  0  0  0  0  0  0  0  0  0  0  0
  -23.4218    9.7727    0.1648 C   0  0  1  0  0  0  0  0  0  0  0  0
  -24.5730    9.1203    0.5895 O   0  0  0  0  0  0  0  0  0  0  0  0
  -22.2212    9.0576    0.8410 C   0  0  0  0  0  0  0  0  0  0  0  0
  -20.8972    9.6346    0.4648 N   0  0  0  0  0  0  0  0  0  0  0  0
  -19.7365    9.5559    1.2115 C   0  0  0  0  0  0  0  0  0  0  0  0
  -18.6697    9.9105    0.3726 C   0  0  0  0  0  0  0  0  0  0  0  0
  -17.2146    9.6595    0.5074 C   0  0  0  0  0  0  0  0  0  0  0  0
  -16.3206   10.0517   -0.4967 C   0  0  0  0  0  0  0  0  0  0  0  0
  -14.9767    9.7231   -0.4905 C   0  0  0  0  0  0  0  0  0  0  0  0
  -14.4263    9.0194    0.5096 C   0  0  0  0  0  0  0  0  0  0  0  0
  -15.2883    8.7705    1.6161 C   0  0  0  0  0  0  0  0  0  0  0  0
  -14.7340    8.4683    2.8258 F   0  0  0  0  0  0  0  0  0  0  0  0
  -16.6527    8.9792    1.5478 C   0  0  0  0  0  0  0  0  0  0  0  0
  -19.2591   10.2924   -0.8495 N   0  0  0  0  0  0  0  0  0  0  0  0
  -20.5262   10.0636   -0.7982 N   0  0  0  0  0  0  0  0  0  0  0  0
  -19.3821    8.4991   -2.0716 C   0  0  1  0  0  0  0  0  0  0  0  0
  -18.9442    9.0960   -0.8771 O   0  0  0  0  0  0  0  0  0  0  0  0
  -18.7269    7.0585   -2.0369 C   0  0  1  0  0  0  0  0  0  0  0  0
  -17.3067    7.0727   -2.0968 N   0  0  0  0  0  0  0  0  0  0  0  0
  -16.4286    7.2061   -1.0467 C   0  0  0  0  0  0  0  0  0  0  0  0
  -15.1351    7.2337   -1.5816 C   0  0  0  0  0  0  0  0  0  0  0  0
  -13.8913    7.5351   -0.9556 C   0  0  0  0  0  0  0  0  0  0  0  0
  -12.7160    7.6930   -1.7172 C   0  0  0  0  0  0  0  0  0  0  0  0
  -11.4848    8.0153   -1.1179 C   0  0  0  0  0  0  0  0  0  0  0  0
  -11.3980    8.2071    0.2489 C   0  0  0  0  0  0  0  0  0  0  0  0
  -12.5453    8.0645    0.9675 C   0  0  0  0  0  0  0  0  0  0  0  0
  -12.4276    8.0697    2.3180 F   0  0  0  0  0  0  0  0  0  0  0  0
  -13.7950    7.7980    0.4092 C   0  0  0  0  0  0  0  0  0  0  0  0
  -15.3073    7.1764   -2.9432 N   0  0  0  0  0  0  0  0  0  0  0  0
  -16.5431    7.1122   -3.2689 N   0  0  0  0  0  0  0  0  0  0  0  0
  -19.2741    6.2931   -0.8327 C   0  0  1  0  0  0  0  0  0  0  0  0
  -18.9341    6.9132    0.3418 O   0  0  0  0  0  0  0  0  0  0  0  0
 29 30  4  0
 28 29  1  0
 29 35  4  0
 30 31  4  0
 33 32  4  0
 31 32  4  0
 35 33  4  0
 33 34  1  0
 27 28  4  0
 28 36  4  0
 26 27  4  0
 25 38  1  0
  3 38  1  0
 38 39  1  1
 23 25  1  0
 25 26  1  1
  5 23  1  0
 23 24  1  6
  8  7  1  0
  7  6  1  0
 13 14  1  0
 14 20  4  0
 14 15  4  0
 20 18  4  0
 18 17  4  0
 18 19  1  0
 16 17  4  0
 15 16  4  0
  3  2  1  1
  4  3  1  0
  5  4  1  0
  5  6  1  1
  2  1  1  0
 10  8  1  0
  8  9  1  6
 11 10  1  0
 12 13  4  0
 13 21  4  0
 12 11  4  0
 36 37  4  0
 37 26  4  0
 11 22  4  0
 22 21  4  0
M  END
$$$$
