
     RDKit          3D

 18 17  0  0  0  0  0  0  0  0999 V2000
  -13.5520  -12.6660  -20.3260 C   0  0  0  0  0  0  0  0  0  0  0  0
  -12.5840  -11.5320  -20.4610 C   0  0  0  0  0  0  0  0  0  0  0  0
  -12.2380  -10.9620  -19.1430 C   0  0  0  0  0  0  0  0  0  0  0  0
  -11.5470   -9.6480  -19.2420 C   0  0  0  0  0  0  0  0  0  0  0  0
  -10.0880   -9.7300  -19.0160 C   0  0  0  0  0  0  0  0  0  0  0  0
   -9.5160   -8.4770  -18.4680 C   0  0  0  0  0  0  0  0  0  0  0  0
   -8.0210   -8.5010  -18.4150 C   0  0  0  0  0  0  0  0  0  0  0  0
   -7.3930   -7.1690  -18.5930 C   0  0  0  0  0  0  0  0  0  0  0  0
   -6.2910   -6.8850  -17.6370 C   0  0  0  0  0  0  0  0  0  0  0  0
   -4.9900   -6.5740  -18.2990 C   0  0  0  0  0  0  0  0  0  0  0  0
   -4.1980   -5.5020  -17.6110 C   0  0  0  0  0  0  0  0  0  0  0  0
   -4.0140   -4.2620  -18.4400 C   0  0  0  0  0  0  0  0  0  0  0  0
   -4.3100   -2.9850  -17.6930 C   0  0  0  0  0  0  0  0  0  0  0  0
   -3.5760   -1.7680  -18.2140 C   0  0  0  0  0  0  0  0  0  0  0  0
   -2.0990   -1.9790  -18.2880 C   0  0  0  0  0  0  0  0  0  0  0  0
   -1.2960   -1.3500  -17.1620 C   0  0  0  0  0  0  0  0  0  0  0  0
   -1.8000   -0.4060  -16.5290 O   0  0  0  0  0  0  0  0  0  0  0  0
   -0.1660   -1.8100  -16.9170 O   0  0  0  0  0  0  0  0  0  0  0  0
 16 17  2  0
 16 18  1  0
 16 15  1  0
 15 14  1  0
 14 13  1  0
 13 12  1  0
 12 11  1  0
 11 10  1  0
 10  9  1  0
  9  8  1  0
  8  7  1  0
  7  6  1  0
  6  5  1  0
  5  4  1  0
  4  3  1  0
  3  2  1  0
  2  1  1  0
M  END
$$$$
