
     RDKit          3D

 18 17  0  0  0  0  0  0  0  0999 V2000
  -13.4657  -13.4605  -21.9512 C   0  0  0  0  0  0  0  0  0  0  0  0
  -13.2655  -12.1986  -21.1792 C   0  0  0  0  0  0  0  0  0  0  0  0
  -13.3870  -12.3859  -19.6982 C   0  0  0  0  0  0  0  0  0  0  0  0
  -12.4200  -11.6710  -18.8568 C   0  0  0  0  0  0  0  0  0  0  0  0
  -12.4203  -10.2249  -19.1421 C   0  0  0  0  0  0  0  0  0  0  0  0
  -11.9414   -9.4108  -17.9675 C   0  0  0  0  0  0  0  0  0  0  0  0
  -10.9669   -8.3377  -18.3971 C   0  0  0  0  0  0  0  0  0  0  0  0
   -9.6360   -8.7903  -18.7602 C   0  0  0  0  0  0  0  0  0  0  0  0
   -8.7086   -8.9466  -17.5977 C   0  0  0  0  0  0  0  0  0  0  0  0
   -8.0688   -7.6678  -17.2032 C   0  0  0  0  0  0  0  0  0  0  0  0
   -6.5376   -7.6949  -17.3189 C   0  0  0  0  0  0  0  0  0  0  0  0
   -5.9124   -6.3617  -17.2697 C   0  0  0  0  0  0  0  0  0  0  0  0
   -4.4207   -6.3889  -17.4059 C   0  0  0  0  0  0  0  0  0  0  0  0
   -3.7170   -5.0187  -17.3095 C   0  0  0  0  0  0  0  0  0  0  0  0
   -3.9321   -4.1912  -18.4748 C   0  0  0  0  0  0  0  0  0  0  0  0
   -3.8575   -2.7133  -18.2860 C   0  0  0  0  0  0  0  0  0  0  0  0
   -3.8551   -1.9382  -19.2461 O   0  0  0  0  0  0  0  0  0  0  0  0
   -3.8660   -2.2339  -17.0801 O   0  0  0  0  0  0  0  0  0  0  0  0
 16 17  2  0
 16 18  1  0
 16 15  1  0
 15 14  1  0
 14 13  1  0
 13 12  1  0
 12 11  1  0
 11 10  1  0
 10  9  1  0
  9  8  1  0
  8  7  1  0
  7  6  1  0
  6  5  1  0
  5  4  1  0
  4  3  1  0
  3  2  1  0
  2  1  1  0
M  END
$$$$
