
     RDKit          3D

 30 33  0  0  0  0  0  0  0  0999 V2000
  -25.2820    9.0000   -5.6420 C   0  0  0  0  0  0  0  0  0  0  0  0
  -24.1830    9.3200   -4.6980 C   0  0  0  0  0  0  0  0  0  0  0  0
  -23.4710    8.3270   -4.0460 C   0  0  0  0  0  0  0  0  0  0  0  0
  -22.4450    8.6100   -3.1500 C   0  0  0  0  0  0  0  0  0  0  0  0
  -22.0730    9.9190   -2.8580 C   0  0  0  0  0  0  0  0  0  0  0  0
  -20.7380   10.2540   -1.7430 S   0  0  0  0  0  0  0  0  0  0  0  0
  -19.7240    8.7740   -1.7470 C   0  0  2  0  0  0  0  0  0  0  0  0
  -20.2820    7.8680   -0.8000 O   0  0  0  0  0  0  0  0  0  0  0  0
  -19.6580    6.5630   -0.9250 C   0  0  2  0  0  0  0  0  0  0  0  0
  -20.3930    5.6140    0.0290 C   0  0  0  0  0  0  0  0  0  0  0  0
  -21.7390    5.4760   -0.3400 O   0  0  0  0  0  0  0  0  0  0  0  0
  -18.1720    6.7050   -0.5910 C   0  0  2  0  0  0  0  0  0  0  0  0
  -18.0020    7.0960    0.7120 O   0  0  0  0  0  0  0  0  0  0  0  0
  -17.5720    7.7270   -1.5630 C   0  0  2  0  0  0  0  0  0  0  0  0
  -16.1540    7.8630   -1.3910 N   0  0  0  0  0  0  0  0  0  0  0  0
  -15.4440    8.2550   -0.2680 C   0  0  0  0  0  0  0  0  0  0  0  0
  -14.1110    8.1930   -0.6190 C   0  0  0  0  0  0  0  0  0  0  0  0
  -12.9360    8.4810    0.1660 C   0  0  0  0  0  0  0  0  0  0  0  0
  -11.6880    8.6720   -0.4400 C   0  0  0  0  0  0  0  0  0  0  0  0
  -10.5380    8.9020    0.2990 C   0  0  0  0  0  0  0  0  0  0  0  0
  -10.5800    8.9520    1.6800 C   0  0  0  0  0  0  0  0  0  0  0  0
  -11.8080    8.7520    2.2360 C   0  0  0  0  0  0  0  0  0  0  0  0
  -11.8740    8.7590    3.6190 F   0  0  0  0  0  0  0  0  0  0  0  0
  -12.9640    8.5080    1.5630 C   0  0  0  0  0  0  0  0  0  0  0  0
  -14.1000    7.7820   -1.9520 N   0  0  0  0  0  0  0  0  0  0  0  0
  -15.2800    7.5710   -2.3900 N   0  0  0  0  0  0  0  0  0  0  0  0
  -18.2590    9.0900   -1.4590 C   0  0  1  0  0  0  0  0  0  0  0  0
  -17.7800    9.8850   -2.5160 O   0  0  0  0  0  0  0  0  0  0  0  0
  -22.7700   10.9190   -3.5050 C   0  0  0  0  0  0  0  0  0  0  0  0
  -23.7970   10.6270   -4.3940 C   0  0  0  0  0  0  0  0  0  0  0  0
 18 24  2  0
 18 19  1  0
 17 18  1  0
 24 22  1  0
 22 21  2  0
 22 23  1  0
 20 21  1  0
 19 20  2  0
  2  1  1  0
  3  2  2  0
 30  2  1  0
  4  3  1  0
  5  4  2  0
 29 30  2  0
  5 29  1  0
  6  5  1  0
 27  7  1  0
  7  8  1  0
  7  6  1  1
  9 10  1  1
 12  9  1  0
  9  8  1  0
 10 11  1  0
 14 12  1  0
 12 13  1  1
 14 27  1  0
 14 15  1  1
 16 17  2  0
 16 15  1  0
 17 25  1  0
 27 28  1  6
 15 26  1  0
 25 26  2  0
M  END
$$$$
