
     RDKit          3D

 31 34  0  0  0  0  0  0  0  0999 V2000
  -26.4569    8.9369   -4.1242 C   0  0  0  0  0  0  0  0  0  0  0  0
  -25.0516    9.0888   -3.6279 C   0  0  0  0  0  0  0  0  0  0  0  0
  -23.9426    8.5138   -4.3141 C   0  0  0  0  0  0  0  0  0  0  0  0
  -22.6074    8.6831   -3.8270 C   0  0  0  0  0  0  0  0  0  0  0  0
  -22.2691    9.4399   -2.7142 C   0  0  0  0  0  0  0  0  0  0  0  0
  -20.5808    9.9274   -2.4064 S   0  0  0  0  0  0  0  0  0  0  0  0
  -19.6447    8.4580   -2.0506 C   0  0  2  0  0  0  0  0  0  0  0  0
  -20.2284    7.6711   -1.0170 O   0  0  0  0  0  0  0  0  0  0  0  0
  -19.6765    6.3610   -0.8674 C   0  0  2  0  0  0  0  0  0  0  0  0
  -20.4064    5.6396    0.1251 C   0  0  0  0  0  0  0  0  0  0  0  0
  -21.8137    5.6570   -0.1323 O   0  0  0  0  0  0  0  0  0  0  0  0
  -18.1992    6.5092   -0.6182 C   0  0  2  0  0  0  0  0  0  0  0  0
  -18.0110    7.1199    0.6526 O   0  0  0  0  0  0  0  0  0  0  0  0
  -17.5660    7.3296   -1.7332 C   0  0  2  0  0  0  0  0  0  0  0  0
  -16.1087    7.4290   -1.5835 N   0  0  0  0  0  0  0  0  0  0  0  0
  -15.3472    7.3991   -0.4121 C   0  0  0  0  0  0  0  0  0  0  0  0
  -14.0293    7.5763   -0.7489 C   0  0  0  0  0  0  0  0  0  0  0  0
  -12.8913    7.9095    0.0186 C   0  0  0  0  0  0  0  0  0  0  0  0
  -11.5576    7.6725   -0.4019 C   0  0  0  0  0  0  0  0  0  0  0  0
  -10.4674    7.8621    0.3711 C   0  0  0  0  0  0  0  0  0  0  0  0
  -10.6161    8.3556    1.6702 C   0  0  0  0  0  0  0  0  0  0  0  0
   -9.6738    8.1894    2.5779 F   0  0  0  0  0  0  0  0  0  0  0  0
  -11.9236    8.8044    2.0438 C   0  0  0  0  0  0  0  0  0  0  0  0
  -12.0419    9.7812    2.9262 F   0  0  0  0  0  0  0  0  0  0  0  0
  -13.0168    8.4309    1.2766 C   0  0  0  0  0  0  0  0  0  0  0  0
  -14.0514    7.5295   -2.1163 N   0  0  0  0  0  0  0  0  0  0  0  0
  -15.2428    7.4064   -2.5823 N   0  0  0  0  0  0  0  0  0  0  0  0
  -18.1591    8.7179   -1.9045 C   0  0  2  0  0  0  0  0  0  0  0  0
  -17.9830    9.3989   -0.6412 O   0  0  0  0  0  0  0  0  0  0  0  0
  -23.3975    9.9596   -1.9991 C   0  0  0  0  0  0  0  0  0  0  0  0
  -24.7162    9.7471   -2.4023 C   0  0  0  0  0  0  0  0  0  0  0  0
 18 25  4  0
 17 18  1  0
 18 19  4  0
 25 23  4  0
 23 21  4  0
 23 24  1  0
 20 21  4  0
 21 22  1  0
 19 20  4  0
  2  1  1  0
  3  2  4  0
 31  2  4  0
  4  3  4  0
  5  4  4  0
 30 31  4  0
  5 30  4  0
  6  5  1  0
 28  7  1  0
  7  8  1  0
  7  6  1  1
  9 10  1  1
 12  9  1  0
  9  8  1  0
 10 11  1  0
 14 12  1  0
 12 13  1  1
 14 28  1  0
 14 15  1  1
 16 17  4  0
 16 15  4  0
 17 26  4  0
 28 29  1  6
 15 27  4  0
 26 27  4  0
M  END
$$$$
