
     RDKit          3D

 32 35  0  0  0  0  0  0  0  0999 V2000
  -24.5570    9.1300   -6.1980 C   0  0  0  0  0  0  0  0  0  0  0  0
  -23.5810    9.3560   -5.1090 C   0  0  0  0  0  0  0  0  0  0  0  0
  -23.1250    8.3120   -4.3060 C   0  0  0  0  0  0  0  0  0  0  0  0
  -22.2260    8.5620   -3.2900 C   0  0  0  0  0  0  0  0  0  0  0  0
  -21.7490    9.8670   -3.0230 C   0  0  0  0  0  0  0  0  0  0  0  0
  -20.5870   10.3000   -1.7590 S   0  0  0  0  0  0  0  0  0  0  0  0
  -19.5740    8.8590   -1.6760 C   0  0  2  0  0  0  0  0  0  0  0  0
  -20.1120    7.8960   -0.8110 O   0  0  0  0  0  0  0  0  0  0  0  0
  -19.4690    6.6440   -0.8840 C   0  0  2  0  0  0  0  0  0  0  0  0
  -20.1730    5.6700    0.0450 C   0  0  0  0  0  0  0  0  0  0  0  0
  -21.5070    5.4380   -0.4390 O   0  0  0  0  0  0  0  0  0  0  0  0
  -17.9660    6.7950   -0.5880 C   0  0  2  0  0  0  0  0  0  0  0  0
  -17.7810    7.1610    0.7230 O   0  0  0  0  0  0  0  0  0  0  0  0
  -17.3450    7.8400   -1.5490 C   0  0  2  0  0  0  0  0  0  0  0  0
  -15.9400    7.9730   -1.3320 N   0  0  0  0  0  0  0  0  0  0  0  0
  -15.2600    8.4050   -0.2320 C   0  0  0  0  0  0  0  0  0  0  0  0
  -13.9270    8.3500   -0.5310 C   0  0  0  0  0  0  0  0  0  0  0  0
  -12.7790    8.6310    0.2580 C   0  0  0  0  0  0  0  0  0  0  0  0
  -11.5330    8.7930   -0.3270 C   0  0  0  0  0  0  0  0  0  0  0  0
  -10.4150    9.0620    0.4430 C   0  0  0  0  0  0  0  0  0  0  0  0
   -9.2190    9.2400   -0.1110 F   0  0  0  0  0  0  0  0  0  0  0  0
  -10.5100    9.0980    1.8110 C   0  0  0  0  0  0  0  0  0  0  0  0
   -9.4380    9.3340    2.5640 F   0  0  0  0  0  0  0  0  0  0  0  0
  -11.7530    8.9170    2.3840 C   0  0  0  0  0  0  0  0  0  0  0  0
  -11.7990    8.9160    3.7100 F   0  0  0  0  0  0  0  0  0  0  0  0
  -12.8570    8.6640    1.6410 C   0  0  0  0  0  0  0  0  0  0  0  0
  -13.8250    7.8830   -1.8320 N   0  0  0  0  0  0  0  0  0  0  0  0
  -15.0180    7.6430   -2.3050 N   0  0  0  0  0  0  0  0  0  0  0  0
  -18.1060    9.1670   -1.4960 C   0  0  1  0  0  0  0  0  0  0  0  0
  -17.6140   10.0430   -2.4600 O   0  0  0  0  0  0  0  0  0  0  0  0
  -22.1730   10.8860   -3.8310 C   0  0  0  0  0  0  0  0  0  0  0  0
  -23.0940   10.6630   -4.8550 C   0  0  0  0  0  0  0  0  0  0  0  0
  9 10  1  1
 10 11  1  0
 16 17  2  0
 17 18  1  0
 17 27  1  0
 22 20  2  0
 20 19  1  0
 20 21  1  0
 24 22  1  0
 22 23  1  0
 26 24  2  0
 24 25  1  0
 18 26  1  0
  2  1  1  0
  3  2  2  0
  2 32  1  0
  4  3  1  0
  5  4  2  0
  5 31  1  0
  6  5  1  0
 29  7  1  0
  7  8  1  0
  7  6  1  1
 12  9  1  0
  9  8  1  0
 14 12  1  0
 12 13  1  1
 14 29  1  0
 14 15  1  1
 16 15  1  0
 18 19  2  0
 29 30  1  6
 31 32  2  0
 15 28  1  0
 27 28  2  0
M  END
$$$$
