
     RDKit          3D

 32 35  0  0  0  0  0  0  0  0999 V2000
  -26.1785    9.1043   -3.7815 C   0  0  0  0  0  0  0  0  0  0  0  0
  -24.7286    9.0979   -3.5012 C   0  0  0  0  0  0  0  0  0  0  0  0
  -23.8068    9.1056   -4.5138 C   0  0  0  0  0  0  0  0  0  0  0  0
  -22.4273    9.0734   -4.2486 C   0  0  0  0  0  0  0  0  0  0  0  0
  -21.9669    9.2485   -2.8991 C   0  0  0  0  0  0  0  0  0  0  0  0
  -20.4538    9.9598   -2.3959 S   0  0  0  0  0  0  0  0  0  0  0  0
  -19.4602    8.4659   -2.0515 C   0  0  2  0  0  0  0  0  0  0  0  0
  -20.0198    7.7094   -1.0246 O   0  0  0  0  0  0  0  0  0  0  0  0
  -19.4606    6.4859   -0.8884 C   0  0  2  0  0  0  0  0  0  0  0  0
  -20.2015    5.6755    0.1756 C   0  0  0  0  0  0  0  0  0  0  0  0
  -21.6107    5.8272   -0.0018 O   0  0  0  0  0  0  0  0  0  0  0  0
  -17.9650    6.5845   -0.6081 C   0  0  2  0  0  0  0  0  0  0  0  0
  -17.7223    7.1841    0.6154 O   0  0  0  0  0  0  0  0  0  0  0  0
  -17.2851    7.4082   -1.7121 C   0  0  2  0  0  0  0  0  0  0  0  0
  -15.8675    7.5605   -1.5740 N   0  0  0  0  0  0  0  0  0  0  0  0
  -15.1687    7.6113   -0.3494 C   0  0  0  0  0  0  0  0  0  0  0  0
  -13.8364    7.7503   -0.6927 C   0  0  0  0  0  0  0  0  0  0  0  0
  -12.7518    8.2377    0.0419 C   0  0  0  0  0  0  0  0  0  0  0  0
  -12.9537    9.1944    1.0340 C   0  0  0  0  0  0  0  0  0  0  0  0
  -11.9117    9.6545    1.8247 C   0  0  0  0  0  0  0  0  0  0  0  0
  -11.9237   10.8956    2.3491 F   0  0  0  0  0  0  0  0  0  0  0  0
  -10.7204    8.9324    1.8330 C   0  0  0  0  0  0  0  0  0  0  0  0
   -9.9895    8.8439    2.9708 F   0  0  0  0  0  0  0  0  0  0  0  0
  -10.4856    8.0443    0.7810 C   0  0  0  0  0  0  0  0  0  0  0  0
   -9.2262    7.8572    0.4630 F   0  0  0  0  0  0  0  0  0  0  0  0
  -11.4750    7.6782   -0.0651 C   0  0  0  0  0  0  0  0  0  0  0  0
  -13.8155    7.6293   -2.1008 N   0  0  0  0  0  0  0  0  0  0  0  0
  -15.0040    7.5899   -2.5666 N   0  0  0  0  0  0  0  0  0  0  0  0
  -17.9998    8.7716   -1.9127 C   0  0  2  0  0  0  0  0  0  0  0  0
  -17.7137    9.6908   -0.8794 O   0  0  0  0  0  0  0  0  0  0  0  0
  -22.8912    9.1152   -1.8833 C   0  0  0  0  0  0  0  0  0  0  0  0
  -24.2955    9.1104   -2.1624 C   0  0  0  0  0  0  0  0  0  0  0  0
  9 10  1  1
 10 11  1  0
 16 17  4  0
 17 18  1  0
 17 27  4  0
 22 20  4  0
 20 19  4  0
 20 21  1  0
 24 22  4  0
 22 23  1  0
 26 24  4  0
 24 25  1  0
 18 26  4  0
  2  1  1  0
  3  2  4  0
  2 32  4  0
  4  3  4  0
  5  4  4  0
  5 31  4  0
  6  5  1  0
 29  7  1  0
  7  8  1  0
  7  6  1  1
 12  9  1  0
  9  8  1  0
 14 12  1  0
 12 13  1  1
 14 29  1  0
 14 15  1  1
 16 15  4  0
 18 19  4  0
 29 30  1  6
 31 32  4  0
 15 28  4  0
 27 28  4  0
M  END
$$$$
