
     RDKit          3D

 30 33  0  0  0  0  0  0  0  0999 V2000
  -27.0429    9.2586   -3.6273 C   0  0  0  0  0  0  0  0  0  0  0  0
  -25.5501    9.2014   -3.3946 C   0  0  0  0  0  0  0  0  0  0  0  0
  -25.0260    8.7464   -2.1620 C   0  0  0  0  0  0  0  0  0  0  0  0
  -23.6220    8.7363   -1.8275 C   0  0  0  0  0  0  0  0  0  0  0  0
  -22.6864    9.3217   -2.6865 C   0  0  0  0  0  0  0  0  0  0  0  0
  -21.0536    9.8557   -2.1829 S   0  0  0  0  0  0  0  0  0  0  0  0
  -20.0560    8.3392   -1.9404 C   0  0  2  0  0  0  0  0  0  0  0  0
  -20.5487    7.6010   -0.9016 O   0  0  0  0  0  0  0  0  0  0  0  0
  -19.9647    6.2740   -0.8057 C   0  0  2  0  0  0  0  0  0  0  0  0
  -20.6099    5.5354    0.4107 C   0  0  0  0  0  0  0  0  0  0  0  0
  -21.9579    5.2054    0.0359 O   0  0  0  0  0  0  0  0  0  0  0  0
  -18.4742    6.4117   -0.6451 C   0  0  2  0  0  0  0  0  0  0  0  0
  -18.0602    7.0092    0.5910 O   0  0  0  0  0  0  0  0  0  0  0  0
  -17.9004    7.3029   -1.7991 C   0  0  2  0  0  0  0  0  0  0  0  0
  -16.4582    7.3966   -1.6891 N   0  0  0  0  0  0  0  0  0  0  0  0
  -15.6742    7.4138   -0.5226 C   0  0  0  0  0  0  0  0  0  0  0  0
  -14.3585    7.4170   -0.9515 C   0  0  0  0  0  0  0  0  0  0  0  0
  -13.1862    7.6377   -0.1718 C   0  0  0  0  0  0  0  0  0  0  0  0
  -13.0290    7.0698    1.0590 C   0  0  0  0  0  0  0  0  0  0  0  0
  -12.1942    7.6644    2.0797 C   0  0  0  0  0  0  0  0  0  0  0  0
  -11.4546    8.8464    1.7922 C   0  0  0  0  0  0  0  0  0  0  0  0
  -10.9891    9.5861    2.7652 F   0  0  0  0  0  0  0  0  0  0  0  0
  -11.4704    9.3213    0.4785 C   0  0  0  0  0  0  0  0  0  0  0  0
  -12.2382    8.6925   -0.4844 C   0  0  0  0  0  0  0  0  0  0  0  0
  -14.4143    7.3692   -2.3754 N   0  0  0  0  0  0  0  0  0  0  0  0
  -15.6600    7.3584   -2.7440 N   0  0  0  0  0  0  0  0  0  0  0  0
  -18.5613    8.6614   -1.8443 C   0  0  2  0  0  0  0  0  0  0  0  0
  -18.3069    9.2947   -0.5780 O   0  0  0  0  0  0  0  0  0  0  0  0
  -23.1724    9.6613   -3.9394 C   0  0  0  0  0  0  0  0  0  0  0  0
  -24.5409    9.6369   -4.2895 C   0  0  0  0  0  0  0  0  0  0  0  0
  9 10  1  1
 10 11  1  0
 16 17  4  0
 17 18  1  0
 17 25  4  0
 21 20  4  0
 20 19  4  0
 23 21  4  0
 21 22  1  0
 18 24  4  0
 24 23  4  0
  2  1  1  0
  3  2  4  0
  2 30  4  0
  4  3  4  0
  5  4  4  0
  5 29  4  0
  6  5  1  0
 27  7  1  0
  7  8  1  0
  7  6  1  1
 12  9  1  0
  9  8  1  0
 14 12  1  0
 12 13  1  1
 14 27  1  0
 14 15  1  1
 16 15  4  0
 18 19  4  0
 27 28  1  6
 29 30  4  0
 15 26  4  0
 25 26  4  0
M  END
$$$$
