
     RDKit          3D

 30 33  0  0  0  0  0  0  0  0999 V2000
  -25.2250    8.6800   -6.2810 C   0  0  0  0  0  0  0  0  0  0  0  0
  -24.1960    8.9770   -5.1810 C   0  0  0  0  0  0  0  0  0  0  0  0
  -23.6860   10.2890   -4.9630 C   0  0  0  0  0  0  0  0  0  0  0  0
  -22.7330   10.5980   -3.9550 C   0  0  0  0  0  0  0  0  0  0  0  0
  -22.2320    9.5990   -3.0870 C   0  0  0  0  0  0  0  0  0  0  0  0
  -21.0000    9.9210   -1.7800 S   0  0  0  0  0  0  0  0  0  0  0  0
  -19.9550    8.4360   -1.7100 C   0  0  2  0  0  0  0  0  0  0  0  0
  -20.4870    7.5240   -0.7740 O   0  0  0  0  0  0  0  0  0  0  0  0
  -19.8720    6.2350   -0.8480 C   0  0  2  0  0  0  0  0  0  0  0  0
  -20.5270    5.3170    0.1700 C   0  0  0  0  0  0  0  0  0  0  0  0
  -21.8610    5.1270   -0.2430 O   0  0  0  0  0  0  0  0  0  0  0  0
  -18.3750    6.4080   -0.5410 C   0  0  2  0  0  0  0  0  0  0  0  0
  -18.1620    6.8670    0.7800 O   0  0  0  0  0  0  0  0  0  0  0  0
  -17.7810    7.4680   -1.5160 C   0  0  2  0  0  0  0  0  0  0  0  0
  -16.3600    7.5930   -1.2680 N   0  0  0  0  0  0  0  0  0  0  0  0
  -15.7110    8.1520   -0.1580 C   0  0  0  0  0  0  0  0  0  0  0  0
  -14.3550    8.0230   -0.3930 C   0  0  0  0  0  0  0  0  0  0  0  0
  -13.2570    8.3790    0.4430 C   0  0  0  0  0  0  0  0  0  0  0  0
  -13.4040    8.5910    1.8070 C   0  0  0  0  0  0  0  0  0  0  0  0
  -12.3430    8.8960    2.6470 C   0  0  0  0  0  0  0  0  0  0  0  0
  -11.0310    8.9850    2.1390 C   0  0  0  0  0  0  0  0  0  0  0  0
  -10.0030    9.2600    2.9160 F   0  0  0  0  0  0  0  0  0  0  0  0
  -10.8430    8.7520    0.7750 C   0  0  0  0  0  0  0  0  0  0  0  0
  -11.9300    8.4410   -0.0310 C   0  0  0  0  0  0  0  0  0  0  0  0
  -14.2450    7.3410   -1.6310 N   0  0  0  0  0  0  0  0  0  0  0  0
  -15.4080    7.1040   -2.1290 N   0  0  0  0  0  0  0  0  0  0  0  0
  -18.5010    8.7920   -1.4210 C   0  0  1  0  0  0  0  0  0  0  0  0
  -17.9790    9.6210   -2.4440 O   0  0  0  0  0  0  0  0  0  0  0  0
  -22.7240    8.2920   -3.2940 C   0  0  0  0  0  0  0  0  0  0  0  0
  -23.6750    7.9930   -4.3080 C   0  0  0  0  0  0  0  0  0  0  0  0
  9 10  1  1
 10 11  1  0
 16 17  2  0
 17 18  1  0
 17 25  1  0
 21 20  2  0
 20 19  1  0
 23 21  1  0
 21 22  1  0
 18 24  1  0
 24 23  2  0
  2  1  1  0
  3  2  2  0
  2 30  1  0
  4  3  1  0
  5  4  2  0
  5 29  1  0
  6  5  1  0
 27  7  1  0
  7  8  1  0
  7  6  1  1
 12  9  1  0
  9  8  1  0
 14 12  1  0
 12 13  1  1
 14 27  1  0
 14 15  1  1
 16 15  1  0
 18 19  2  0
 27 28  1  6
 29 30  2  0
 15 26  1  0
 25 26  2  0
M  END
$$$$
