
     RDKit          3D

 31 34  0  0  0  0  0  0  0  0999 V2000
  -26.3732    9.9387   -3.3900 C   0  0  0  0  0  0  0  0  0  0  0  0
  -24.9049    9.6683   -3.3193 C   0  0  0  0  0  0  0  0  0  0  0  0
  -24.3562    8.6265   -2.5734 C   0  0  0  0  0  0  0  0  0  0  0  0
  -22.9710    8.5475   -2.3785 C   0  0  0  0  0  0  0  0  0  0  0  0
  -22.0831    9.5787   -2.7297 C   0  0  0  0  0  0  0  0  0  0  0  0
  -20.5722    9.9504   -1.7497 S   0  0  0  0  0  0  0  0  0  0  0  0
  -19.6405    8.4110   -1.7151 C   0  0  2  0  0  0  0  0  0  0  0  0
  -20.0683    7.6169   -0.6058 O   0  0  0  0  0  0  0  0  0  0  0  0
  -19.5556    6.3249   -0.7489 C   0  0  2  0  0  0  0  0  0  0  0  0
  -20.2224    5.4509    0.3533 C   0  0  0  0  0  0  0  0  0  0  0  0
  -21.6189    5.5363    0.2173 O   0  0  0  0  0  0  0  0  0  0  0  0
  -18.0205    6.3937   -0.5070 C   0  0  2  0  0  0  0  0  0  0  0  0
  -17.7663    6.8998    0.7575 O   0  0  0  0  0  0  0  0  0  0  0  0
  -17.4418    7.3766   -1.6067 C   0  0  2  0  0  0  0  0  0  0  0  0
  -16.0258    7.4244   -1.4977 N   0  0  0  0  0  0  0  0  0  0  0  0
  -15.2214    7.4459   -0.3902 C   0  0  0  0  0  0  0  0  0  0  0  0
  -13.9015    7.5624   -0.8885 C   0  0  0  0  0  0  0  0  0  0  0  0
  -12.6629    7.8986   -0.1503 C   0  0  0  0  0  0  0  0  0  0  0  0
  -12.1861    9.1967   -0.2338 C   0  0  0  0  0  0  0  0  0  0  0  0
  -11.5145    9.7428    0.8679 C   0  0  0  0  0  0  0  0  0  0  0  0
  -11.1542   10.9699    0.8610 F   0  0  0  0  0  0  0  0  0  0  0  0
  -11.1890    8.9701    2.0133 C   0  0  0  0  0  0  0  0  0  0  0  0
  -11.5767    7.6046    1.9772 C   0  0  0  0  0  0  0  0  0  0  0  0
  -11.3086    6.8421    2.9901 F   0  0  0  0  0  0  0  0  0  0  0  0
  -12.2257    7.0558    0.8767 C   0  0  0  0  0  0  0  0  0  0  0  0
  -14.0251    7.4595   -2.2749 N   0  0  0  0  0  0  0  0  0  0  0  0
  -15.2339    7.4642   -2.6138 N   0  0  0  0  0  0  0  0  0  0  0  0
  -18.1043    8.7523   -1.5417 C   0  0  2  0  0  0  0  0  0  0  0  0
  -17.8930    9.2344   -0.2426 O   0  0  0  0  0  0  0  0  0  0  0  0
  -22.6246   10.5094   -3.6488 C   0  0  0  0  0  0  0  0  0  0  0  0
  -23.9767   10.6427   -3.8958 C   0  0  0  0  0  0  0  0  0  0  0  0
 18 19  4  0
 17 18  1  0
 18 25  4  0
 19 20  4  0
 20 22  4  0
 20 21  1  0
 22 23  4  0
  2  1  1  0
  3  2  4  0
 31  2  4  0
  4  3  4  0
  5  4  4  0
 30 31  4  0
  5 30  4  0
  6  5  1  0
 28  7  1  0
  7  8  1  0
  7  6  1  1
  9 10  1  1
 12  9  1  0
  9  8  1  0
 10 11  1  0
 14 12  1  0
 12 13  1  1
 14 28  1  0
 14 15  1  1
 16 17  4  0
 16 15  4  0
 17 26  4  0
 23 25  4  0
 23 24  1  0
 28 29  1  6
 15 27  4  0
 26 27  4  0
M  END
$$$$
