
     RDKit          3D

 30 33  0  0  0  0  0  0  0  0999 V2000
  -24.6670    9.0540   -5.8240 C   0  0  0  0  0  0  0  0  0  0  0  0
  -23.6350    9.3430   -4.8860 C   0  0  0  0  0  0  0  0  0  0  0  0
  -23.0990    8.3260   -4.1350 C   0  0  0  0  0  0  0  0  0  0  0  0
  -22.1350    8.5620   -3.1760 C   0  0  0  0  0  0  0  0  0  0  0  0
  -21.6760    9.8630   -2.8550 C   0  0  0  0  0  0  0  0  0  0  0  0
  -20.3750   10.1610   -1.6510 S   0  0  0  0  0  0  0  0  0  0  0  0
  -19.3980    8.7470   -1.6450 C   0  0  2  0  0  0  0  0  0  0  0  0
  -19.9760    7.7440   -0.7630 O   0  0  0  0  0  0  0  0  0  0  0  0
  -19.3010    6.4260   -0.7180 C   0  0  2  0  0  0  0  0  0  0  0  0
  -20.0630    5.5650    0.3240 C   0  0  0  0  0  0  0  0  0  0  0  0
  -21.3840    5.2970   -0.2300 O   0  0  0  0  0  0  0  0  0  0  0  0
  -17.8110    6.5930   -0.3450 C   0  0  2  0  0  0  0  0  0  0  0  0
  -17.7280    7.0550    0.8950 O   0  0  0  0  0  0  0  0  0  0  0  0
  -17.1380    7.7120   -1.3600 C   0  0  2  0  0  0  0  0  0  0  0  0
  -15.7810    7.8250   -1.1570 N   0  0  0  0  0  0  0  0  0  0  0  0
  -15.0970    8.3180   -0.0590 C   0  0  0  0  0  0  0  0  0  0  0  0
  -13.7230    8.2080   -0.3240 C   0  0  0  0  0  0  0  0  0  0  0  0
  -12.5560    8.5730    0.4490 C   0  0  0  0  0  0  0  0  0  0  0  0
  -11.2800    8.7750   -0.0940 C   0  0  0  0  0  0  0  0  0  0  0  0
  -10.1500    9.1230    0.6250 C   0  0  0  0  0  0  0  0  0  0  0  0
  -10.2390    9.2240    1.9900 C   0  0  0  0  0  0  0  0  0  0  0  0
  -11.4630    9.0220    2.5620 C   0  0  0  0  0  0  0  0  0  0  0  0
  -12.5710    8.6820    1.7840 C   0  0  0  0  0  0  0  0  0  0  0  0
  -13.6820    8.4780    2.4580 F   0  0  0  0  0  0  0  0  0  0  0  0
  -13.6890    7.6470   -1.6030 N   0  0  0  0  0  0  0  0  0  0  0  0
  -14.8390    7.4320   -2.0500 N   0  0  0  0  0  0  0  0  0  0  0  0
  -17.9610    9.0650   -1.2520 C   0  0  1  0  0  0  0  0  0  0  0  0
  -17.4680    9.9030   -2.2520 O   0  0  0  0  0  0  0  0  0  0  0  0
  -22.1930   10.9060   -3.6070 C   0  0  0  0  0  0  0  0  0  0  0  0
  -23.1770   10.6490   -4.5820 C   0  0  0  0  0  0  0  0  0  0  0  0
 18 19  2  0
 17 18  1  0
 18 23  1  0
 19 20  1  0
 20 21  2  0
 22 21  1  0
 23 22  2  0
 27  7  1  0
 14 27  1  0
 27 28  1  6
  2  1  1  0
  3  2  2  0
 30  2  1  0
  4  3  1  0
  5  4  2  0
 29 30  2  0
  5 29  1  0
  6  5  1  0
  7  8  1  0
  7  6  1  1
  9 10  1  1
 12  9  1  0
  9  8  1  0
 10 11  1  0
 14 12  1  0
 12 13  1  1
 14 15  1  1
 16 17  2  0
 16 15  1  0
 17 25  1  0
 23 24  1  0
 15 26  1  0
 25 26  2  0
M  END
$$$$
