
     RDKit          3D

 31 34  0  0  0  0  0  0  0  0999 V2000
  -26.6256    9.7740   -3.8184 C   0  0  0  0  0  0  0  0  0  0  0  0
  -25.1267    9.7550   -3.4058 C   0  0  0  0  0  0  0  0  0  0  0  0
  -24.1022    9.7543   -4.3093 C   0  0  0  0  0  0  0  0  0  0  0  0
  -22.7474    9.7509   -3.9642 C   0  0  0  0  0  0  0  0  0  0  0  0
  -22.3473    9.7693   -2.6419 C   0  0  0  0  0  0  0  0  0  0  0  0
  -20.6883   10.2679   -2.1586 S   0  0  0  0  0  0  0  0  0  0  0  0
  -19.8051    8.7285   -1.9145 C   0  0  2  0  0  0  0  0  0  0  0  0
  -20.2977    8.0757   -0.8055 O   0  0  0  0  0  0  0  0  0  0  0  0
  -19.8486    6.6804   -0.7502 C   0  0  2  0  0  0  0  0  0  0  0  0
  -20.5367    6.0444    0.4804 C   0  0  0  0  0  0  0  0  0  0  0  0
  -21.8876    5.7660    0.1332 O   0  0  0  0  0  0  0  0  0  0  0  0
  -18.3263    6.7210   -0.5574 C   0  0  2  0  0  0  0  0  0  0  0  0
  -17.9915    7.3292    0.6410 O   0  0  0  0  0  0  0  0  0  0  0  0
  -17.7236    7.5515   -1.7406 C   0  0  2  0  0  0  0  0  0  0  0  0
  -16.3033    7.5521   -1.6186 N   0  0  0  0  0  0  0  0  0  0  0  0
  -15.5356    7.6740   -0.5018 C   0  0  0  0  0  0  0  0  0  0  0  0
  -14.2399    7.7627   -0.9319 C   0  0  0  0  0  0  0  0  0  0  0  0
  -13.0517    7.9438   -0.1437 C   0  0  0  0  0  0  0  0  0  0  0  0
  -11.8050    7.7982   -0.7802 C   0  0  0  0  0  0  0  0  0  0  0  0
  -10.6139    7.9258   -0.0870 C   0  0  0  0  0  0  0  0  0  0  0  0
  -10.6962    8.2991    1.2506 C   0  0  0  0  0  0  0  0  0  0  0  0
   -9.5863    8.1007    2.0631 F   0  0  0  0  0  0  0  0  0  0  0  0
  -11.8952    8.6837    1.8611 C   0  0  0  0  0  0  0  0  0  0  0  0
  -11.8621    9.6535    2.9016 C   0  0  0  0  0  0  0  0  0  0  0  0
  -13.0363    8.3124    1.1670 C   0  0  0  0  0  0  0  0  0  0  0  0
  -14.2873    7.6685   -2.3050 N   0  0  0  0  0  0  0  0  0  0  0  0
  -15.5070    7.6369   -2.7180 N   0  0  0  0  0  0  0  0  0  0  0  0
  -18.2808    8.9887   -1.8111 C   0  0  2  0  0  0  0  0  0  0  0  0
  -18.0704    9.5267   -0.4884 O   0  0  0  0  0  0  0  0  0  0  0  0
  -23.3315    9.7987   -1.6900 C   0  0  0  0  0  0  0  0  0  0  0  0
  -24.7113    9.7833   -2.0921 C   0  0  0  0  0  0  0  0  0  0  0  0
 18 19  4  0
 17 18  1  0
 18 25  4  0
 19 20  4  0
 20 21  4  0
 23 21  4  0
 25 23  4  0
 23 24  1  0
 28  7  1  0
 14 28  1  0
 28 29  1  6
  2  1  1  0
  3  2  4  0
 31  2  4  0
  4  3  4  0
  5  4  4  0
 30 31  4  0
  5 30  4  0
  6  5  1  0
  7  8  1  0
  7  6  1  1
  9 10  1  1
 12  9  1  0
  9  8  1  0
 10 11  1  0
 14 12  1  0
 12 13  1  1
 14 15  1  1
 16 17  4  0
 16 15  4  0
 17 26  4  0
 21 22  1  0
 15 27  4  0
 26 27  4  0
M  END
$$$$
