
     RDKit          3D

 31 34  0  0  0  0  0  0  0  0999 V2000
  -25.5730    9.0200   -5.7430 C   0  0  0  0  0  0  0  0  0  0  0  0
  -24.4290    9.3220   -4.7280 C   0  0  0  0  0  0  0  0  0  0  0  0
  -24.0720   10.6380   -4.3900 C   0  0  0  0  0  0  0  0  0  0  0  0
  -23.0490   10.9400   -3.4760 C   0  0  0  0  0  0  0  0  0  0  0  0
  -22.3340    9.9510   -2.8430 C   0  0  0  0  0  0  0  0  0  0  0  0
  -21.0370   10.2850   -1.6710 S   0  0  0  0  0  0  0  0  0  0  0  0
  -19.9700    8.8230   -1.6800 C   0  0  2  0  0  0  0  0  0  0  0  0
  -20.4810    7.8880   -0.7520 O   0  0  0  0  0  0  0  0  0  0  0  0
  -19.8830    6.5950   -0.9160 C   0  0  2  0  0  0  0  0  0  0  0  0
  -20.5870    5.6460    0.0850 C   0  0  0  0  0  0  0  0  0  0  0  0
  -21.9150    5.4950   -0.3540 O   0  0  0  0  0  0  0  0  0  0  0  0
  -18.3840    6.7310   -0.6020 C   0  0  2  0  0  0  0  0  0  0  0  0
  -18.1980    7.1150    0.7360 O   0  0  0  0  0  0  0  0  0  0  0  0
  -17.7920    7.8560   -1.5330 C   0  0  2  0  0  0  0  0  0  0  0  0
  -16.4080    7.9880   -1.2910 N   0  0  0  0  0  0  0  0  0  0  0  0
  -15.7770    8.3940   -0.1380 C   0  0  0  0  0  0  0  0  0  0  0  0
  -14.4220    8.3480   -0.4220 C   0  0  0  0  0  0  0  0  0  0  0  0
  -13.3160    8.6070    0.4240 C   0  0  0  0  0  0  0  0  0  0  0  0
  -13.4480    8.4790    1.8170 C   0  0  0  0  0  0  0  0  0  0  0  0
  -12.3850    8.6760    2.6740 C   0  0  0  0  0  0  0  0  0  0  0  0
  -11.1530    8.9910    2.1100 C   0  0  0  0  0  0  0  0  0  0  0  0
  -10.1000    9.1770    2.9750 F   0  0  0  0  0  0  0  0  0  0  0  0
  -10.9350    9.1070    0.7540 C   0  0  0  0  0  0  0  0  0  0  0  0
   -9.6200    9.4500    0.2710 C   0  0  0  0  0  0  0  0  0  0  0  0
  -12.0380    8.8990   -0.0640 C   0  0  0  0  0  0  0  0  0  0  0  0
  -14.3520    7.9110   -1.7390 N   0  0  0  0  0  0  0  0  0  0  0  0
  -15.4940    7.7090   -2.2290 N   0  0  0  0  0  0  0  0  0  0  0  0
  -18.5280    9.1910   -1.3590 C   0  0  1  0  0  0  0  0  0  0  0  0
  -18.0390   10.0040   -2.4180 O   0  0  0  0  0  0  0  0  0  0  0  0
  -22.6560    8.6320   -3.1560 C   0  0  0  0  0  0  0  0  0  0  0  0
  -23.6830    8.3300   -4.0780 C   0  0  0  0  0  0  0  0  0  0  0  0
 18 19  2  0
 17 18  1  0
 18 25  1  0
 19 20  1  0
 20 21  2  0
 23 21  1  0
 25 23  2  0
 23 24  1  0
 28  7  1  0
 14 28  1  0
 28 29  1  6
  2  1  1  0
  3  2  2  0
 31  2  1  0
  4  3  1  0
  5  4  2  0
 30 31  2  0
  5 30  1  0
  6  5  1  0
  7  8  1  0
  7  6  1  1
  9 10  1  1
 12  9  1  0
  9  8  1  0
 10 11  1  0
 14 12  1  0
 12 13  1  1
 14 15  1  1
 16 17  2  0
 16 15  1  0
 17 26  1  0
 21 22  1  0
 15 27  1  0
 26 27  2  0
M  END
$$$$
