
     RDKit          3D

 28 30  0  0  0  0  0  0  0  0999 V2000
    7.6400    8.0530    3.7110 N   0  0  0  0  0  0  0  0  0  0  0  0
    6.6000    6.9880    3.8750 C   0  0  2  0  0  0  0  0  0  0  0  0
    5.4710    7.1050    2.8000 C   0  0  0  0  0  0  0  0  0  0  0  0
    5.1140    8.5020    2.6560 O   0  0  0  0  0  0  0  0  0  0  0  0
    5.9350    6.9490    5.2710 C   0  0  0  0  0  0  0  0  0  0  0  0
    5.5840    8.1230    5.9690 C   0  0  0  0  0  0  0  0  0  0  0  0
    4.9540    8.0630    7.2240 C   0  0  0  0  0  0  0  0  0  0  0  0
    4.7100    6.7920    7.7680 C   0  0  0  0  0  0  0  0  0  0  0  0
    5.0950    5.6070    7.1110 C   0  0  0  0  0  0  0  0  0  0  0  0
    4.8750    4.2710    7.7370 C   0  0  0  0  0  0  0  0  0  0  0  0
    5.8690    3.2660    7.6580 C   0  0  0  0  0  0  0  0  0  0  0  0
    5.6770    2.0050    8.2620 C   0  0  0  0  0  0  0  0  0  0  0  0
    4.4780    1.7610    8.9650 C   0  0  0  0  0  0  0  0  0  0  0  0
    3.4880    2.7610    9.0710 C   0  0  0  0  0  0  0  0  0  0  0  0
    2.1690    2.4890    9.8050 C   0  0  0  0  0  0  0  0  0  0  0  0
    2.0350    3.5410   10.7830 O   0  0  0  0  0  0  0  0  0  0  0  0
    0.8510    3.8200   11.4990 C   0  0  0  0  0  0  0  0  0  0  0  0
   -0.2130    2.8920   11.5530 C   0  0  0  0  0  0  0  0  0  0  0  0
   -1.3940    3.1940   12.2700 C   0  0  0  0  0  0  0  0  0  0  0  0
   -1.5020    4.4080   12.9630 C   0  0  0  0  0  0  0  0  0  0  0  0
   -0.4470    5.3440   12.9240 C   0  0  0  0  0  0  0  0  0  0  0  0
    0.7240    5.0780   12.1790 C   0  0  0  0  0  0  0  0  0  0  0  0
    1.8780    6.1130   12.2060 C   0  0  0  0  0  0  0  0  0  0  0  0
    2.2720    6.6880   10.8490 C   0  0  0  0  0  0  0  0  0  0  0  0
    3.2340    7.4470   10.7290 O   0  0  0  0  0  0  0  0  0  0  0  0
    1.5180    6.3630    9.7820 O   0  0  0  0  0  0  0  0  0  0  0  0
    3.6860    4.0040    8.4350 C   0  0  0  0  0  0  0  0  0  0  0  0
    5.6990    5.6940    5.8540 C   0  0  0  0  0  0  0  0  0  0  0  0
 10 11  2  0
 12 11  1  0
 27 10  1  0
 10  9  1  0
 14 27  2  0
 18 19  2  0
 17 18  1  0
 19 20  1  0
 21 20  2  0
 22 21  1  0
 22 23  1  0
 17 22  2  0
 23 24  1  0
 24 26  1  0
 24 25  2  0
 28  5  2  0
  9 28  1  0
  5  6  1  0
  5  2  1  0
  7  6  2  0
  8  7  1  0
  9  8  2  0
  2  3  1  0
  2  1  1  1
  3  4  1  0
 14 13  1  0
 15 14  1  0
 13 12  2  0
 16 15  1  0
 16 17  1  0
M  CHG  1   1   1
M  END
$$$$
