
     RDKit          3D

 23 25  0  0  0  0  0  0  0  0999 V2000
  -26.2690  -18.9360    8.5230 C   0  0  0  0  0  0  0  0  0  0  0  0
  -25.1360  -19.7040    8.0090 O   0  0  0  0  0  0  0  0  0  0  0  0
  -24.3040  -20.2760    8.9320 C   0  0  0  0  0  0  0  0  0  0  0  0
  -24.1560  -19.7840   10.1590 C   0  0  0  0  0  0  0  0  0  0  0  0
  -23.2630  -20.4130   11.0640 C   0  0  0  0  0  0  0  0  0  0  0  0
  -23.0510  -19.9090   12.4460 C   0  0  0  0  0  0  0  0  0  0  0  0
  -22.1460  -18.8030   12.4630 O   0  0  0  0  0  0  0  0  0  0  0  0
  -20.7370  -19.0820   12.6170 C   0  0  0  0  0  0  0  0  0  0  0  0
  -20.2910  -20.2610   12.6840 O   0  0  0  0  0  0  0  0  0  0  0  0
  -19.7710  -17.8970   12.6610 C   0  0  0  0  0  0  0  0  0  0  0  0
  -18.4380  -17.9460   12.6080 C   0  0  0  0  0  0  0  0  0  0  0  0
  -18.0070  -16.6730   12.6700 N   0  0  0  0  0  0  0  0  0  0  0  0
  -19.0220  -15.8290   12.7850 N   0  0  0  0  0  0  0  0  0  0  0  0
  -20.1440  -16.5560   12.7750 C   0  0  0  0  0  0  0  0  0  0  0  0
  -22.5470  -21.5800   10.6590 C   0  0  0  0  0  0  0  0  0  0  0  0
  -22.7000  -22.0770    9.4290 C   0  0  0  0  0  0  0  0  0  0  0  0
  -21.9090  -23.3290    9.0160 C   0  0  0  0  0  0  0  0  0  0  0  0
  -21.5330  -24.2870    9.9880 C   0  0  0  0  0  0  0  0  0  0  0  0
  -20.8070  -25.4150    9.5590 C   0  0  0  0  0  0  0  0  0  0  0  0
  -20.4900  -25.5330    8.2020 C   0  0  0  0  0  0  0  0  0  0  0  0
  -20.8580  -24.6140    7.3240 N   0  0  0  0  0  0  0  0  0  0  0  0
  -21.5480  -23.5330    7.6860 C   0  0  0  0  0  0  0  0  0  0  0  0
  -23.5580  -21.4540    8.5330 C   0  0  0  0  0  0  0  0  0  0  0  0
 10 11  1  0
 11 12  2  0
 14 13  1  0
 13 12  1  0
 10 14  2  0
  5 15  2  0
 15 16  1  0
 17 18  2  0
 16 17  1  0
 17 22  1  0
 19 20  2  0
 20 21  1  0
 18 19  1  0
  2  1  1  0
  3  2  1  0
  4  3  2  0
  3 23  1  0
  5  4  1  0
  6  5  1  0
  7  6  1  0
  8  7  1  0
  8 10  1  0
  8  9  2  0
 16 23  2  0
 22 21  2  0
M  END
$$$$
