
     RDKit          3D

 17 19  0  0  0  0  0  0  0  0999 V2000
  -21.6757   15.6869  -12.7543 N   0  0  0  0  0  0  0  0  0  0  0  0
  -21.4356   16.8589  -12.5940 C   0  0  0  0  0  0  0  0  0  0  0  0
  -20.5556   18.0833  -12.7324 C   0  0  0  0  0  0  0  0  0  0  0  0
  -20.9050   19.4118  -12.6540 C   0  0  0  0  0  0  0  0  0  0  0  0
  -21.3443   20.2615  -11.4550 C   0  0  0  0  0  0  0  0  0  0  0  0
  -22.4057   19.8341  -10.6014 C   0  0  0  0  0  0  0  0  0  0  0  0
  -22.8961   20.7774   -9.6703 C   0  0  0  0  0  0  0  0  0  0  0  0
  -22.3847   22.1152   -9.6061 C   0  0  0  0  0  0  0  0  0  0  0  0
  -22.8049   23.2718   -8.9478 C   0  0  0  0  0  0  0  0  0  0  0  0
  -22.2725   24.3579   -9.5862 C   0  0  0  0  0  0  0  0  0  0  0  0
  -21.4555   23.8626  -10.5554 N   0  0  0  0  0  0  0  0  0  0  0  0
  -21.4441   22.4898  -10.5209 C   0  0  0  0  0  0  0  0  0  0  0  0
  -20.7935   21.5429  -11.3817 C   0  0  0  0  0  0  0  0  0  0  0  0
  -20.2645   20.0477  -13.6755 N   0  0  0  0  0  0  0  0  0  0  0  0
  -19.2736   19.2452  -14.1349 N   0  0  0  0  0  0  0  0  0  0  0  0
  -19.4001   18.0842  -13.4893 C   0  0  0  0  0  0  0  0  0  0  0  0
  -18.2835   17.1131  -13.2745 N   0  0  0  0  0  0  0  0  0  0  0  0
 12  8  4  0
 12 11  4  0
 13 12  4  0
  8  9  4  0
  9 10  4  0
  3 16  4  0
  4  3  4  0
  3  2  1  0
 16 17  1  0
 15 16  4  0
 14 15  4  0
  4 14  4  0
  5  4  1  0
  5  6  4  0
  5 13  4  0
  6  7  4  0
  7  8  4  0
 11 10  4  0
  2  1  3  0
M  END
$$$$
