
     RDKit          3D

 17 19  0  0  0  0  0  0  0  0999 V2000
  -20.9760   15.2870  -12.6280 N   0  0  0  0  0  0  0  0  0  0  0  0
  -20.5290   16.3430  -12.6320 C   0  0  0  0  0  0  0  0  0  0  0  0
  -19.8650   17.6960  -12.6530 C   0  0  0  0  0  0  0  0  0  0  0  0
  -20.3890   18.9810  -12.5420 C   0  0  0  0  0  0  0  0  0  0  0  0
  -21.7920   19.4670  -12.1890 C   0  0  0  0  0  0  0  0  0  0  0  0
  -22.8660   18.5660  -11.9880 C   0  0  0  0  0  0  0  0  0  0  0  0
  -24.0990   19.0710  -11.5720 C   0  0  0  0  0  0  0  0  0  0  0  0
  -24.2390   20.4650  -11.3110 C   0  0  0  0  0  0  0  0  0  0  0  0
  -25.3330   21.2900  -10.8740 C   0  0  0  0  0  0  0  0  0  0  0  0
  -24.8650   22.5940  -10.8060 C   0  0  0  0  0  0  0  0  0  0  0  0
  -23.5740   22.5960  -11.1650 N   0  0  0  0  0  0  0  0  0  0  0  0
  -23.1680   21.3210  -11.4720 C   0  0  0  0  0  0  0  0  0  0  0  0
  -21.9010   20.8250  -11.8970 C   0  0  0  0  0  0  0  0  0  0  0  0
  -19.3810   19.8450  -12.6210 N   0  0  0  0  0  0  0  0  0  0  0  0
  -18.2200   19.1800  -12.8500 N   0  0  0  0  0  0  0  0  0  0  0  0
  -18.4950   17.8540  -12.8620 C   0  0  0  0  0  0  0  0  0  0  0  0
  -17.5430   16.7910  -13.0680 N   0  0  0  0  0  0  0  0  0  0  0  0
 12  8  2  0
 12 11  1  0
 13 12  1  0
  8  9  1  0
  9 10  2  0
  3 16  2  0
  4  3  1  0
  3  2  1  0
 16 17  1  0
 15 16  1  0
 14 15  1  0
  4 14  2  0
  5  4  1  0
  5  6  1  0
  5 13  2  0
  6  7  2  0
  7  8  1  0
 11 10  1  0
  2  1  3  0
M  END
$$$$
