
     RDKit          3D

 24 27  0  0  0  0  0  0  0  0999 V2000
  -23.9430  -20.7320    8.2270 N   0  0  0  0  0  0  0  0  0  0  0  0
  -23.2950  -21.6680    8.3260 C   0  0  0  0  0  0  0  0  0  0  0  0
  -22.4230  -22.9020    8.4420 C   0  0  0  0  0  0  0  0  0  0  0  0
  -21.7190  -23.2500    7.2980 C   0  0  0  0  0  0  0  0  0  0  0  0
  -20.8960  -24.3590    7.2820 C   0  0  0  0  0  0  0  0  0  0  0  0
  -20.7660  -25.1450    8.4110 C   0  0  0  0  0  0  0  0  0  0  0  0
  -21.4600  -24.8110    9.5560 C   0  0  0  0  0  0  0  0  0  0  0  0
  -22.2930  -23.6940    9.5930 C   0  0  0  0  0  0  0  0  0  0  0  0
  -22.9850  -23.4770   10.9290 C   0  0  0  0  0  0  0  0  0  0  0  0
  -23.8550  -22.3490   11.0030 N   0  0  0  0  0  0  0  0  0  0  0  0
  -25.1630  -22.3810   10.7420 C   0  0  0  0  0  0  0  0  0  0  0  0
  -25.6520  -21.0970   10.9190 C   0  0  0  0  0  0  0  0  0  0  0  0
  -24.5600  -20.2530   11.3220 C   0  0  0  0  0  0  0  0  0  0  0  0
  -24.4490  -18.8760   11.6380 C   0  0  0  0  0  0  0  0  0  0  0  0
  -23.2070  -18.3520   11.9990 C   0  0  0  0  0  0  0  0  0  0  0  0
  -22.0980  -19.2040   12.0460 C   0  0  0  0  0  0  0  0  0  0  0  0
  -20.7350  -18.6650   12.3610 C   0  0  0  0  0  0  0  0  0  0  0  0
  -20.3180  -17.3510   12.3140 C   0  0  0  0  0  0  0  0  0  0  0  0
  -18.9540  -17.3620   12.6110 C   0  0  0  0  0  0  0  0  0  0  0  0
  -18.0690  -16.2460   12.7120 N   0  0  0  0  0  0  0  0  0  0  0  0
  -18.5970  -18.6530   12.7870 N   0  0  0  0  0  0  0  0  0  0  0  0
  -19.6880  -19.4450   12.6230 N   0  0  0  0  0  0  0  0  0  0  0  0
  -22.1910  -20.5520   11.7160 C   0  0  0  0  0  0  0  0  0  0  0  0
  -23.4580  -21.0820   11.3580 C   0  0  0  0  0  0  0  0  0  0  0  0
 16 23  2  0
 15 16  1  0
 16 17  1  0
 14 15  2  0
 13 14  1  0
 12 13  1  0
 11 12  2  0
 18 19  1  0
 17 18  2  0
 19 21  2  0
 19 20  1  0
  2  1  3  0
  3  2  1  0
  8  3  2  0
  3  4  1  0
  8  7  1  0
  9  8  1  0
  7  6  2  0
  6  5  1  0
  4  5  2  0
 10  9  1  0
 10 24  1  0
 10 11  1  0
 24 23  1  0
 24 13  2  0
 17 22  1  0
 21 22  1  0
M  END
$$$$
