
     RDKit          3D

 24 27  0  0  0  0  0  0  0  0999 V2000
  -24.2565  -24.8879    7.1339 N   0  0  0  0  0  0  0  0  0  0  0  0
  -23.0923  -24.7501    7.5026 C   0  0  0  0  0  0  0  0  0  0  0  0
  -21.6382  -24.4086    7.3600 C   0  0  0  0  0  0  0  0  0  0  0  0
  -20.8573  -25.3836    6.7360 C   0  0  0  0  0  0  0  0  0  0  0  0
  -19.8479  -25.0494    5.9065 C   0  0  0  0  0  0  0  0  0  0  0  0
  -19.4533  -23.6991    5.7641 C   0  0  0  0  0  0  0  0  0  0  0  0
  -20.1439  -22.7552    6.4244 C   0  0  0  0  0  0  0  0  0  0  0  0
  -21.1198  -23.1067    7.4313 C   0  0  0  0  0  0  0  0  0  0  0  0
  -21.0429  -22.2067    8.6811 C   0  0  0  0  0  0  0  0  0  0  0  0
  -22.2797  -22.0425    9.3257 N   0  0  0  0  0  0  0  0  0  0  0  0
  -23.1889  -23.0055    9.5556 C   0  0  0  0  0  0  0  0  0  0  0  0
  -23.9344  -22.6439   10.6047 C   0  0  0  0  0  0  0  0  0  0  0  0
  -23.5467  -21.3533   11.0728 C   0  0  0  0  0  0  0  0  0  0  0  0
  -23.7880  -20.5600   12.2122 C   0  0  0  0  0  0  0  0  0  0  0  0
  -23.0289  -19.3808   12.4526 C   0  0  0  0  0  0  0  0  0  0  0  0
  -21.9606  -19.0898   11.5699 C   0  0  0  0  0  0  0  0  0  0  0  0
  -20.7209  -18.4770   12.1353 C   0  0  0  0  0  0  0  0  0  0  0  0
  -20.4480  -17.1206   12.2652 C   0  0  0  0  0  0  0  0  0  0  0  0
  -19.0346  -17.0237   12.3169 C   0  0  0  0  0  0  0  0  0  0  0  0
  -18.2627  -15.8735   12.4278 N   0  0  0  0  0  0  0  0  0  0  0  0
  -18.5518  -18.2932   12.2931 N   0  0  0  0  0  0  0  0  0  0  0  0
  -19.5892  -19.1802   12.2886 N   0  0  0  0  0  0  0  0  0  0  0  0
  -21.8968  -19.7279   10.3440 C   0  0  0  0  0  0  0  0  0  0  0  0
  -22.5733  -20.9744   10.1341 C   0  0  0  0  0  0  0  0  0  0  0  0
 16 23  4  0
 15 16  4  0
 16 17  1  0
 14 15  4  0
 13 14  4  0
 12 13  4  0
 11 12  4  0
 18 19  4  0
 17 18  4  0
 19 21  4  0
 19 20  1  0
  2  1  3  0
  3  2  1  0
  8  3  4  0
  3  4  4  0
  8  7  4  0
  9  8  1  0
  7  6  4  0
  6  5  4  0
  4  5  4  0
 10  9  1  0
 10 24  4  0
 10 11  4  0
 24 23  4  0
 24 13  4  0
 17 22  4  0
 21 22  4  0
M  END
$$$$
