
     RDKit          3D

 24 27  0  0  0  0  0  0  0  0999 V2000
  -21.1160   15.1070  -12.6000 N   0  0  0  0  0  0  0  0  0  0  0  0
  -20.6730   16.1580  -12.5490 C   0  0  0  0  0  0  0  0  0  0  0  0
  -20.0280   17.5210  -12.4890 C   0  0  0  0  0  0  0  0  0  0  0  0
  -20.5480   18.7580  -12.3260 C   0  0  0  0  0  0  0  0  0  0  0  0
  -21.9620   19.1960  -11.9750 C   0  0  0  0  0  0  0  0  0  0  0  0
  -23.0150   18.2460  -11.8530 C   0  0  0  0  0  0  0  0  0  0  0  0
  -24.2980   18.6900  -11.4360 C   0  0  0  0  0  0  0  0  0  0  0  0
  -24.5140   20.0770  -11.1230 C   0  0  0  0  0  0  0  0  0  0  0  0
  -25.6360   20.8320  -10.6780 C   0  0  0  0  0  0  0  0  0  0  0  0
  -25.2450   22.1910  -10.5390 C   0  0  0  0  0  0  0  0  0  0  0  0
  -23.9310   22.2580  -10.8710 N   0  0  0  0  0  0  0  0  0  0  0  0
  -23.1250   23.5130  -10.8580 C   0  0  0  0  0  0  0  0  0  0  0  0
  -22.2390   23.6330   -9.5650 C   0  0  0  0  0  0  0  0  0  0  0  0
  -21.0410   24.3560   -9.6280 C   0  0  0  0  0  0  0  0  0  0  0  0
  -20.2640   24.4550   -8.4380 C   0  0  0  0  0  0  0  0  0  0  0  0
  -20.7440   23.8380   -7.2680 C   0  0  0  0  0  0  0  0  0  0  0  0
  -21.9000   23.1730   -7.2470 N   0  0  0  0  0  0  0  0  0  0  0  0
  -22.6500   23.0450   -8.3230 C   0  0  0  0  0  0  0  0  0  0  0  0
  -23.4550   21.0130  -11.2370 C   0  0  0  0  0  0  0  0  0  0  0  0
  -22.1510   20.5730  -11.6410 C   0  0  0  0  0  0  0  0  0  0  0  0
  -19.5660   19.6130  -12.3360 N   0  0  0  0  0  0  0  0  0  0  0  0
  -18.3830   18.9600  -12.5880 N   0  0  0  0  0  0  0  0  0  0  0  0
  -18.6290   17.7000  -12.6950 C   0  0  0  0  0  0  0  0  0  0  0  0
  -17.7190   16.6470  -12.9230 N   0  0  0  0  0  0  0  0  0  0  0  0
  5  6  2  0
  7  6  1  0
 19  8  1  0
 19 20  2  0
 11 19  1  0
 13 14  2  0
 12 13  1  0
 13 18  1  0
 15 16  2  0
 16 17  1  0
 14 15  1  0
  8  9  1  0
  9 10  2  0
 23 24  1  0
 23 22  1  0
  3 23  2  0
 21 22  1  0
  4 21  2  0
  4  3  1  0
  5  4  1  0
  3  2  1  0
  2  1  3  0
 20  5  1  0
  8  7  2  0
 11 12  1  0
 11 10  1  0
 18 17  2  0
M  END
$$$$
