
     RDKit          3D

 24 27  0  0  0  0  0  0  0  0999 V2000
  -21.1690   14.9830  -12.5290 N   0  0  0  0  0  0  0  0  0  0  0  0
  -20.7350   15.9920  -12.4820 C   0  0  0  0  0  0  0  0  0  0  0  0
  -20.0940   17.3270  -12.4350 C   0  0  0  0  0  0  0  0  0  0  0  0
  -20.6540   18.6190  -12.2790 C   0  0  0  0  0  0  0  0  0  0  0  0
  -22.0670   19.0260  -11.9340 C   0  0  0  0  0  0  0  0  0  0  0  0
  -23.0700   18.0910  -11.7820 C   0  0  0  0  0  0  0  0  0  0  0  0
  -24.3340   18.5060  -11.3600 C   0  0  0  0  0  0  0  0  0  0  0  0
  -24.5500   19.8960  -11.0750 C   0  0  0  0  0  0  0  0  0  0  0  0
  -25.7050   20.6750  -10.6100 C   0  0  0  0  0  0  0  0  0  0  0  0
  -25.3100   21.9770  -10.5060 C   0  0  0  0  0  0  0  0  0  0  0  0
  -23.9900   22.0560  -10.8560 N   0  0  0  0  0  0  0  0  0  0  0  0
  -23.2060   23.2920  -10.8700 C   0  0  0  0  0  0  0  0  0  0  0  0
  -22.3640   23.4360   -9.6060 C   0  0  0  0  0  0  0  0  0  0  0  0
  -21.2130   24.2360   -9.6070 C   0  0  0  0  0  0  0  0  0  0  0  0
  -20.4710   24.3630   -8.4560 C   0  0  0  0  0  0  0  0  0  0  0  0
  -20.8610   23.7160   -7.2990 N   0  0  0  0  0  0  0  0  0  0  0  0
  -21.9190   22.9730   -7.2310 C   0  0  0  0  0  0  0  0  0  0  0  0
  -22.7290   22.7900   -8.3620 C   0  0  0  0  0  0  0  0  0  0  0  0
  -23.5230   20.8060  -11.1950 C   0  0  0  0  0  0  0  0  0  0  0  0
  -22.2600   20.3880  -11.6130 C   0  0  0  0  0  0  0  0  0  0  0  0
  -19.6960   19.4810  -12.2930 N   0  0  0  0  0  0  0  0  0  0  0  0
  -18.4920   18.8350  -12.5390 N   0  0  0  0  0  0  0  0  0  0  0  0
  -18.7290   17.5330  -12.6270 C   0  0  0  0  0  0  0  0  0  0  0  0
  -17.7530   16.5030  -12.8660 N   0  0  0  0  0  0  0  0  0  0  0  0
  5  6  2  0
  7  6  1  0
 19  8  1  0
 19 20  2  0
 11 19  1  0
 13 14  1  0
 12 13  1  0
 13 18  2  0
 14 15  2  0
 15 16  1  0
  8  9  1  0
  9 10  2  0
 23 24  1  0
 23 22  1  0
  3 23  2  0
 21 22  1  0
  4 21  2  0
  4  3  1  0
  5  4  1  0
  3  2  1  0
  2  1  3  0
 20  5  1  0
  8  7  2  0
 11 12  1  0
 11 10  1  0
 18 17  1  0
 17 16  2  0
M  END
$$$$
