
     RDKit          3D

 25 28  0  0  0  0  0  0  0  0999 V2000
  -22.3045   17.4951  -14.5766 N   0  0  0  0  0  0  0  0  0  0  0  0
  -22.1163   18.0732  -13.5091 C   0  0  0  0  0  0  0  0  0  0  0  0
  -21.2864   18.3248  -12.2875 C   0  0  0  0  0  0  0  0  0  0  0  0
  -19.9346   18.0016  -12.2573 C   0  0  0  0  0  0  0  0  0  0  0  0
  -18.9921   18.2203  -13.3268 N   0  0  0  0  0  0  0  0  0  0  0  0
  -19.6285   17.6882  -10.9815 N   0  0  0  0  0  0  0  0  0  0  0  0
  -20.7161   17.8619  -10.2048 N   0  0  0  0  0  0  0  0  0  0  0  0
  -21.6670   18.5352  -10.9521 C   0  0  0  0  0  0  0  0  0  0  0  0
  -22.4919   19.6830  -10.3585 C   0  0  0  0  0  0  0  0  0  0  0  0
  -23.6196   20.1309  -10.9594 C   0  0  0  0  0  0  0  0  0  0  0  0
  -24.1560   21.3935  -10.6679 C   0  0  0  0  0  0  0  0  0  0  0  0
  -23.3902   22.2551   -9.8043 C   0  0  0  0  0  0  0  0  0  0  0  0
  -23.4513   23.6362   -9.4949 C   0  0  0  0  0  0  0  0  0  0  0  0
  -24.9472   24.5038   -9.3694 Cl  0  0  0  0  0  0  0  0  0  0  0  0
  -22.1855   24.0403   -9.0233 C   0  0  0  0  0  0  0  0  0  0  0  0
  -21.5120   22.9356   -8.7060 N   0  0  0  0  0  0  0  0  0  0  0  0
  -20.4169   22.8256   -7.7796 C   0  0  0  0  0  0  0  0  0  0  0  0
  -20.7016   23.7568   -6.5971 C   0  0  0  0  0  0  0  0  0  0  0  0
  -21.8954   24.5634   -6.5538 C   0  0  0  0  0  0  0  0  0  0  0  0
  -21.8480   25.8255   -5.9739 C   0  0  0  0  0  0  0  0  0  0  0  0
  -20.6512   26.2274   -5.2894 C   0  0  0  0  0  0  0  0  0  0  0  0
  -19.6435   25.3921   -5.2161 N   0  0  0  0  0  0  0  0  0  0  0  0
  -19.6562   24.1905   -5.7795 C   0  0  0  0  0  0  0  0  0  0  0  0
  -22.2291   21.8239   -9.1996 C   0  0  0  0  0  0  0  0  0  0  0  0
  -21.7970   20.4830   -9.3783 C   0  0  0  0  0  0  0  0  0  0  0  0
 24 25  4  0
 25  9  4  0
  8  3  4  0
  9  8  1  0
  8  7  4  0
  3  2  1  0
  3  4  4  0
  2  1  3  0
 11 10  4  0
 12 11  4  0
 13 15  4  0
 12 13  4  0
 13 14  1  0
 15 16  4  0
 17 18  1  0
 16 17  1  0
 18 19  4  0
 18 23  4  0
 19 20  4  0
 20 21  4  0
 22 21  4  0
 23 22  4  0
 24 12  4  0
 24 16  4  0
  9 10  4  0
  4  6  4  0
  4  5  1  0
  7  6  4  0
M  END
$$$$
