
     RDKit          3D

 25 28  0  0  0  0  0  0  0  0999 V2000
  -20.9960   15.0550  -12.5520 N   0  0  0  0  0  0  0  0  0  0  0  0
  -20.5610   16.0950  -12.5090 C   0  0  0  0  0  0  0  0  0  0  0  0
  -19.9130   17.4570  -12.4650 C   0  0  0  0  0  0  0  0  0  0  0  0
  -18.5810   17.6550  -12.6970 C   0  0  0  0  0  0  0  0  0  0  0  0
  -17.6110   16.6110  -12.9900 N   0  0  0  0  0  0  0  0  0  0  0  0
  -18.3280   18.9700  -12.5960 N   0  0  0  0  0  0  0  0  0  0  0  0
  -19.4630   19.6420  -12.2990 N   0  0  0  0  0  0  0  0  0  0  0  0
  -20.4810   18.7490  -12.2910 C   0  0  0  0  0  0  0  0  0  0  0  0
  -21.8690   19.1420  -11.8370 C   0  0  0  0  0  0  0  0  0  0  0  0
  -22.8330   18.1640  -11.5450 C   0  0  0  0  0  0  0  0  0  0  0  0
  -24.0600   18.5560  -10.9970 C   0  0  0  0  0  0  0  0  0  0  0  0
  -24.2900   19.9300  -10.6950 C   0  0  0  0  0  0  0  0  0  0  0  0
  -25.3900   20.6480  -10.1350 C   0  0  0  0  0  0  0  0  0  0  0  0
  -26.8440   19.8720   -9.6340 Cl  0  0  0  0  0  0  0  0  0  0  0  0
  -25.0490   22.0290  -10.0720 C   0  0  0  0  0  0  0  0  0  0  0  0
  -23.8040   22.1430  -10.5510 N   0  0  0  0  0  0  0  0  0  0  0  0
  -23.0360   23.3650  -10.6650 C   0  0  0  0  0  0  0  0  0  0  0  0
  -22.1540   23.4950   -9.4240 C   0  0  0  0  0  0  0  0  0  0  0  0
  -22.5670   22.9900   -8.1660 C   0  0  0  0  0  0  0  0  0  0  0  0
  -21.7070   23.1400   -7.0570 C   0  0  0  0  0  0  0  0  0  0  0  0
  -20.4650   23.7800   -7.2470 C   0  0  0  0  0  0  0  0  0  0  0  0
  -20.1100   24.2410   -8.4400 N   0  0  0  0  0  0  0  0  0  0  0  0
  -20.8910   24.1210   -9.5000 C   0  0  0  0  0  0  0  0  0  0  0  0
  -23.3190   20.8900  -10.9350 C   0  0  0  0  0  0  0  0  0  0  0  0
  -22.0750   20.4910  -11.4950 C   0  0  0  0  0  0  0  0  0  0  0  0
 24 25  2  0
 25  9  1  0
  8  3  2  0
  9  8  1  0
  8  7  1  0
  3  2  1  0
  3  4  1  0
  2  1  3  0
 11 10  1  0
 12 11  2  0
 13 15  2  0
 12 13  1  0
 13 14  1  0
 15 16  1  0
 17 18  1  0
 16 17  1  0
 18 19  2  0
 18 23  1  0
 19 20  1  0
 20 21  2  0
 22 21  1  0
 23 22  2  0
 24 12  1  0
 24 16  1  0
  9 10  2  0
  4  6  2  0
  4  5  1  0
  7  6  1  0
M  END
$$$$
