
     RDKit          3D

 25 28  0  0  0  0  0  0  0  0999 V2000
  -21.3450   14.9050  -12.6180 N   0  0  0  0  0  0  0  0  0  0  0  0
  -20.8980   15.9550  -12.5330 C   0  0  0  0  0  0  0  0  0  0  0  0
  -20.2490   17.3130  -12.4380 C   0  0  0  0  0  0  0  0  0  0  0  0
  -20.7660   18.5890  -12.2440 C   0  0  0  0  0  0  0  0  0  0  0  0
  -22.1520   19.0510  -11.9050 C   0  0  0  0  0  0  0  0  0  0  0  0
  -23.2290   18.1130  -11.8170 C   0  0  0  0  0  0  0  0  0  0  0  0
  -24.4750   18.5620  -11.4040 C   0  0  0  0  0  0  0  0  0  0  0  0
  -24.6610   19.9500  -11.0670 C   0  0  0  0  0  0  0  0  0  0  0  0
  -25.7760   20.7180  -10.6210 C   0  0  0  0  0  0  0  0  0  0  0  0
  -25.3390   22.0570  -10.4380 C   0  0  0  0  0  0  0  0  0  0  0  0
  -24.0330   22.1030  -10.7540 N   0  0  0  0  0  0  0  0  0  0  0  0
  -23.2150   23.3050  -10.6960 C   0  0  0  0  0  0  0  0  0  0  0  0
  -22.5800   23.4650   -9.3530 C   0  0  0  0  0  0  0  0  0  0  0  0
  -22.7160   22.4780   -8.3280 C   0  0  0  0  0  0  0  0  0  0  0  0
  -22.0820   22.7290   -7.1140 C   0  0  0  0  0  0  0  0  0  0  0  0
  -21.3520   23.9200   -6.9490 C   0  0  0  0  0  0  0  0  0  0  0  0
  -21.2500   24.8160   -7.9350 N   0  0  0  0  0  0  0  0  0  0  0  0
  -21.8270   24.6210   -9.0820 C   0  0  0  0  0  0  0  0  0  0  0  0
  -21.6940   25.6000  -10.1060 O   0  0  0  0  0  0  0  0  0  0  0  0
  -23.5780   20.8630  -11.1420 C   0  0  0  0  0  0  0  0  0  0  0  0
  -22.2990   20.4110  -11.5460 C   0  0  0  0  0  0  0  0  0  0  0  0
  -19.7290   19.4710  -12.2450 N   0  0  0  0  0  0  0  0  0  0  0  0
  -18.5940   18.8060  -12.4910 N   0  0  0  0  0  0  0  0  0  0  0  0
  -18.8820   17.4750  -12.6110 C   0  0  0  0  0  0  0  0  0  0  0  0
  -17.9130   16.4440  -12.8660 N   0  0  0  0  0  0  0  0  0  0  0  0
 11 10  1  0
  9 10  2  0
 20 11  1  0
 20  8  2  0
 21 20  1  0
  5 21  2  0
  5  6  1  0
  4  5  1  0
  7  8  1  0
  6  7  2  0
  3  2  1  0
  2  1  3  0
  3 24  2  0
 24 23  1  0
 24 25  1  0
 18 19  2  0
 18 17  1  0
 13 18  1  0
 17 16  1  0
 15 16  2  0
 14 15  1  0
 13 14  2  0
 12 13  1  0
 11 12  1  0
  8  9  1  0
  4  3  1  0
  4 22  2  0
 23 22  1  0
M  END
$$$$
