
     RDKit          3D

 25 28  0  0  0  0  0  0  0  0999 V2000
  -22.1226   15.6706  -13.3440 N   0  0  0  0  0  0  0  0  0  0  0  0
  -21.8227   16.5539  -12.6281 C   0  0  0  0  0  0  0  0  0  0  0  0
  -20.8662   17.5894  -12.0981 C   0  0  0  0  0  0  0  0  0  0  0  0
  -21.0101   18.8628  -11.6658 C   0  0  0  0  0  0  0  0  0  0  0  0
  -22.1871   19.5754  -11.0158 C   0  0  0  0  0  0  0  0  0  0  0  0
  -23.3528   19.9367  -11.8555 C   0  0  0  0  0  0  0  0  0  0  0  0
  -23.9655   21.2152  -11.6284 C   0  0  0  0  0  0  0  0  0  0  0  0
  -23.5184   22.0022  -10.4814 C   0  0  0  0  0  0  0  0  0  0  0  0
  -23.8246   23.2834  -10.0600 C   0  0  0  0  0  0  0  0  0  0  0  0
  -22.8840   23.6386   -9.0051 C   0  0  0  0  0  0  0  0  0  0  0  0
  -22.1356   22.5697   -8.8294 N   0  0  0  0  0  0  0  0  0  0  0  0
  -20.8515   22.6015   -8.0919 C   0  0  0  0  0  0  0  0  0  0  0  0
  -20.9778   23.5619   -6.9072 C   0  0  0  0  0  0  0  0  0  0  0  0
  -22.1651   23.6022   -6.0984 C   0  0  0  0  0  0  0  0  0  0  0  0
  -22.5814   24.8413   -5.6537 C   0  0  0  0  0  0  0  0  0  0  0  0
  -21.7763   25.9505   -5.8664 C   0  0  0  0  0  0  0  0  0  0  0  0
  -20.6250   25.8541   -6.4859 N   0  0  0  0  0  0  0  0  0  0  0  0
  -20.1411   24.7104   -6.8812 C   0  0  0  0  0  0  0  0  0  0  0  0
  -18.7363   24.4683   -6.9093 O   0  0  0  0  0  0  0  0  0  0  0  0
  -22.5278   21.5285   -9.6223 C   0  0  0  0  0  0  0  0  0  0  0  0
  -21.9750   20.2262   -9.8028 C   0  0  0  0  0  0  0  0  0  0  0  0
  -19.8298   19.4957  -11.6659 N   0  0  0  0  0  0  0  0  0  0  0  0
  -18.8528   18.5928  -11.9373 N   0  0  0  0  0  0  0  0  0  0  0  0
  -19.4614   17.3831  -12.1859 C   0  0  0  0  0  0  0  0  0  0  0  0
  -18.7819   16.2189  -12.6250 N   0  0  0  0  0  0  0  0  0  0  0  0
 11 10  4  0
  9 10  4  0
 20 11  4  0
 20  8  4  0
 21 20  4  0
  5 21  4  0
  5  6  4  0
  4  5  1  0
  7  8  4  0
  6  7  4  0
  3  2  1  0
  2  1  3  0
  3 24  4  0
 24 23  4  0
 24 25  1  0
 18 19  2  0
 18 17  4  0
 13 18  4  0
 17 16  4  0
 15 16  4  0
 14 15  4  0
 13 14  4  0
 12 13  1  0
 11 12  1  0
  8  9  4  0
  4  3  4  0
  4 22  4  0
 23 22  4  0
M  END
$$$$
