
     RDKit          3D

 25 28  0  0  0  0  0  0  0  0999 V2000
  -18.7290   25.1226   -4.3217 C   0  0  0  0  0  0  0  0  0  0  0  0
  -19.8729   24.6808   -4.5983 N   0  0  1  0  0  4  0  0  0  0  0  0
  -20.6194   25.7613   -5.1045 C   0  0  0  0  0  0  0  0  0  0  0  0
  -21.8250   25.3716   -5.9761 C   0  0  0  0  0  0  0  0  0  0  0  0
  -21.6010   24.2342   -6.8167 C   0  0  0  0  0  0  0  0  0  0  0  0
  -20.9506   23.1262   -6.1634 C   0  0  1  0  0  0  0  0  0  0  0  0
  -20.7186   22.0414   -7.2765 C   0  0  0  0  0  0  0  0  0  0  0  0
  -21.4372   22.2626   -8.5269 N   0  0  0  0  0  0  0  0  0  0  0  0
  -21.9311   23.4508   -8.9002 C   0  0  0  0  0  0  0  0  0  0  0  0
  -22.9910   23.1840   -9.8630 C   0  0  0  0  0  0  0  0  0  0  0  0
  -22.9973   21.7835  -10.1138 C   0  0  0  0  0  0  0  0  0  0  0  0
  -23.6159   20.9738  -11.1775 C   0  0  0  0  0  0  0  0  0  0  0  0
  -23.0098   19.7564  -11.5029 C   0  0  0  0  0  0  0  0  0  0  0  0
  -21.7937   19.3403  -10.8994 C   0  0  0  0  0  0  0  0  0  0  0  0
  -20.7466   18.7679  -11.7140 C   0  0  0  0  0  0  0  0  0  0  0  0
  -19.5485   19.3489  -11.8037 N   0  0  0  0  0  0  0  0  0  0  0  0
  -18.5993   18.4210  -12.1309 N   0  0  0  0  0  0  0  0  0  0  0  0
  -19.2134   17.2704  -12.3101 C   0  0  0  0  0  0  0  0  0  0  0  0
  -18.5232   16.0267  -12.6022 N   0  0  0  0  0  0  0  0  0  0  0  0
  -20.5576   17.4455  -12.1925 C   0  0  0  0  0  0  0  0  0  0  0  0
  -21.5732   16.4059  -12.6619 C   0  0  0  0  0  0  0  0  0  0  0  0
  -22.0037   15.2996  -12.9052 N   0  0  0  0  0  0  0  0  0  0  0  0
  -21.3978   19.9427   -9.6796 C   0  0  0  0  0  0  0  0  0  0  0  0
  -21.9059   21.2169   -9.3773 C   0  0  0  0  0  0  0  0  0  0  0  0
  -19.6557   23.5598   -5.4829 C   0  0  0  0  0  0  0  0  0  0  0  0
  8 24  4  0
 24 23  4  0
 24 11  4  0
 14 15  1  0
 15 20  4  0
 15 16  4  0
 20 21  1  0
 21 22  3  0
 20 18  4  0
 18 19  1  0
 18 17  4  0
 12 13  4  0
 13 14  4  0
 11 12  4  0
 11 10  4  0
 10  9  4  0
  2  1  1  1
 25  2  1  0
  2  3  1  0
  6 25  1  0
  4  3  1  0
  5  4  1  0
  6  5  1  0
  6  7  1  1
  7  8  1  0
  8  9  4  0
 23 14  4  0
 17 16  4  0
M  CHG  1   2   1
M  END
$$$$
