
     RDKit          3D

 25 28  0  0  0  0  0  0  0  0999 V2000
  -21.2470   25.4340  -10.3540 C   0  0  0  0  0  0  0  0  0  0  0  0
  -22.1240   25.2300   -9.4770 N   0  0  2  0  0  4  0  0  0  0  0  0
  -21.6100   25.6390   -8.1990 C   0  0  0  0  0  0  0  0  0  0  0  0
  -20.7430   24.6150   -7.4480 C   0  0  0  0  0  0  0  0  0  0  0  0
  -21.0880   23.2330   -7.6250 C   0  0  0  0  0  0  0  0  0  0  0  0
  -21.5210   22.8970   -8.9540 C   0  0  0  0  0  0  0  0  0  0  0  0
  -22.5800   23.8690   -9.4740 C   0  0  2  0  0  0  0  0  0  0  0  0
  -23.1040   23.4450  -10.8470 C   0  0  0  0  0  0  0  0  0  0  0  0
  -23.9260   22.2460  -10.7760 N   0  0  0  0  0  0  0  0  0  0  0  0
  -25.1750   22.1830  -10.4000 C   0  0  0  0  0  0  0  0  0  0  0  0
  -25.5940   20.8140  -10.4890 C   0  0  0  0  0  0  0  0  0  0  0  0
  -24.5000   20.0480  -10.9590 C   0  0  0  0  0  0  0  0  0  0  0  0
  -24.2950   18.6470  -11.2440 C   0  0  0  0  0  0  0  0  0  0  0  0
  -23.0670   18.2250  -11.6760 C   0  0  0  0  0  0  0  0  0  0  0  0
  -22.0410   19.1840  -11.8810 C   0  0  0  0  0  0  0  0  0  0  0  0
  -20.6240   18.7450  -12.2660 C   0  0  0  0  0  0  0  0  0  0  0  0
  -19.6120   19.6350  -12.3130 N   0  0  0  0  0  0  0  0  0  0  0  0
  -18.4690   18.9770  -12.5560 N   0  0  0  0  0  0  0  0  0  0  0  0
  -18.7520   17.6400  -12.6350 C   0  0  0  0  0  0  0  0  0  0  0  0
  -17.7670   16.6310  -12.8920 N   0  0  0  0  0  0  0  0  0  0  0  0
  -20.1070   17.4630  -12.4170 C   0  0  0  0  0  0  0  0  0  0  0  0
  -20.7630   16.1110  -12.4590 C   0  0  0  0  0  0  0  0  0  0  0  0
  -21.1800   15.0670  -12.4990 N   0  0  0  0  0  0  0  0  0  0  0  0
  -22.2140   20.5470  -11.5790 C   0  0  0  0  0  0  0  0  0  0  0  0
  -23.4770   20.9630  -11.1270 C   0  0  0  0  0  0  0  0  0  0  0  0
 12 13  2  0
 13 14  1  0
 10 11  2  0
  9 10  1  0
  8  9  1  0
  7  8  1  6
  7  6  1  0
  6  5  1  0
  3  4  1  0
  2  3  1  0
  2  1  1  6
 21 22  1  0
 22 23  3  0
 19 20  1  0
 19 18  1  0
 21 19  2  0
 17 18  1  0
 16 17  2  0
 15 16  1  0
 16 21  1  0
 24 15  1  0
 15 14  2  0
 25 24  2  0
 25 12  1  0
  9 25  1  0
 12 11  1  0
  7  2  1  0
  5  4  1  0
M  CHG  1   2   1
M  END
$$$$
