
     RDKit          3D

 25 28  0  0  0  0  0  0  0  0999 V2000
  -18.5921   23.3161   -6.8661 C   0  0  0  0  0  0  0  0  0  0  0  0
  -19.7957   23.7148   -6.9920 N   0  0  2  0  0  4  0  0  0  0  0  0
  -20.0541   24.7137   -5.9369 C   0  0  0  0  0  0  0  0  0  0  0  0
  -21.5118   25.0550   -5.5918 C   0  0  0  0  0  0  0  0  0  0  0  0
  -22.4428   23.9098   -5.7618 C   0  0  0  0  0  0  0  0  0  0  0  0
  -22.1753   23.0682   -6.8565 C   0  0  0  0  0  0  0  0  0  0  0  0
  -20.7393   22.6318   -6.9006 C   0  0  1  0  0  0  0  0  0  0  0  0
  -20.4702   21.6142   -8.0146 C   0  0  0  0  0  0  0  0  0  0  0  0
  -21.3816   21.8267   -9.1504 N   0  0  0  0  0  0  0  0  0  0  0  0
  -22.2145   22.8620   -9.2775 C   0  0  0  0  0  0  0  0  0  0  0  0
  -23.2319   22.4380  -10.2488 C   0  0  0  0  0  0  0  0  0  0  0  0
  -22.8951   21.1453  -10.7487 C   0  0  0  0  0  0  0  0  0  0  0  0
  -23.4391   20.2759  -11.7292 C   0  0  0  0  0  0  0  0  0  0  0  0
  -22.7607   19.1673  -12.0875 C   0  0  0  0  0  0  0  0  0  0  0  0
  -21.4707   18.9305  -11.6016 C   0  0  0  0  0  0  0  0  0  0  0  0
  -20.3315   18.3978  -12.5023 C   0  0  0  0  0  0  0  0  0  0  0  0
  -19.2468   19.1557  -12.7624 N   0  0  0  0  0  0  0  0  0  0  0  0
  -18.1711   18.3595  -12.7335 N   0  0  0  0  0  0  0  0  0  0  0  0
  -18.5743   17.0597  -12.7729 C   0  0  0  0  0  0  0  0  0  0  0  0
  -17.7354   15.9186  -12.7707 N   0  0  0  0  0  0  0  0  0  0  0  0
  -19.9894   17.0850  -12.6619 C   0  0  0  0  0  0  0  0  0  0  0  0
  -20.7981   15.8007  -12.6306 C   0  0  0  0  0  0  0  0  0  0  0  0
  -20.8187   14.5896  -12.6568 N   0  0  0  0  0  0  0  0  0  0  0  0
  -21.0035   19.6810  -10.4587 C   0  0  0  0  0  0  0  0  0  0  0  0
  -21.6877   20.8144  -10.0933 C   0  0  0  0  0  0  0  0  0  0  0  0
 12 13  4  0
 13 14  4  0
 10 11  4  0
  9 10  4  0
  8  9  1  0
  7  8  1  1
  7  6  1  0
  6  5  1  0
  3  4  1  0
  2  3  1  0
  2  1  1  1
 21 22  1  0
 22 23  3  0
 19 20  1  0
 19 18  4  0
 21 19  4  0
 17 18  4  0
 16 17  4  0
 15 16  1  0
 16 21  4  0
 24 15  4  0
 15 14  4  0
 25 24  4  0
 25 12  4  0
  9 25  4  0
 12 11  4  0
  7  2  1  0
  5  4  1  0
M  CHG  1   2   1
M  END
$$$$
