
     RDKit          3D

 31 35  0  0  0  0  0  0  0  0999 V2000
  -20.3160  -15.5557   14.9500 N   0  0  0  0  0  0  0  0  0  0  0  0
  -20.2906  -16.5806   14.3517 C   0  0  0  0  0  0  0  0  0  0  0  0
  -19.7911  -17.5745   13.2377 C   0  0  0  0  0  0  0  0  0  0  0  0
  -20.5118  -17.9941   12.1003 C   0  0  0  0  0  0  0  0  0  0  0  0
  -21.8290  -18.7578   11.9747 C   0  0  0  0  0  0  0  0  0  0  0  0
  -23.0289  -18.1431   11.6797 C   0  0  0  0  0  0  0  0  0  0  0  0
  -23.9574  -18.8006   10.8729 C   0  0  0  0  0  0  0  0  0  0  0  0
  -23.7052  -20.1431   10.4550 C   0  0  0  0  0  0  0  0  0  0  0  0
  -24.3191  -21.0290    9.4654 C   0  0  0  0  0  0  0  0  0  0  0  0
  -23.4459  -22.1073    9.1906 C   0  0  0  0  0  0  0  0  0  0  0  0
  -22.3468  -21.8506    9.9310 N   0  0  0  0  0  0  0  0  0  0  0  0
  -20.9668  -22.3698    9.6438 C   0  0  0  0  0  0  0  0  0  0  0  0
  -20.9274  -23.4254    8.5154 C   0  0  0  0  0  0  0  0  0  0  0  0
  -20.7846  -23.0377    7.1891 C   0  0  0  0  0  0  0  0  0  0  0  0
  -20.5134  -24.0401    6.2046 C   0  0  0  0  0  0  0  0  0  0  0  0
  -20.1420  -25.3583    6.6313 C   0  0  0  0  0  0  0  0  0  0  0  0
  -18.9035  -26.0560    5.9332 C   0  0  0  0  0  0  0  0  0  0  0  0
  -19.2431  -27.1863    5.6210 N   0  0  1  0  0  4  0  0  0  0  0  0
  -18.9513  -27.5301    4.2257 C   0  0  0  0  0  0  0  0  0  0  0  0
  -18.9216  -29.0246    3.9309 C   0  0  0  0  0  0  0  0  0  0  0  0
  -18.3229  -29.7775    5.0200 C   0  0  0  0  0  0  0  0  0  0  0  0
  -19.1317  -29.5803    6.2145 C   0  0  0  0  0  0  0  0  0  0  0  0
  -19.1573  -28.1246    6.6584 C   0  0  0  0  0  0  0  0  0  0  0  0
  -20.5106  -25.7260    7.9342 C   0  0  0  0  0  0  0  0  0  0  0  0
  -20.7790  -24.7473    8.8786 C   0  0  0  0  0  0  0  0  0  0  0  0
  -22.5653  -20.7685   10.8324 C   0  0  0  0  0  0  0  0  0  0  0  0
  -21.6839  -20.1436   11.7885 C   0  0  0  0  0  0  0  0  0  0  0  0
  -19.6089  -17.9801   11.0845 N   0  0  0  0  0  0  0  0  0  0  0  0
  -18.3422  -17.9331   11.5788 N   0  0  0  0  0  0  0  0  0  0  0  0
  -18.4426  -17.7975   12.9538 C   0  0  0  0  0  0  0  0  0  0  0  0
  -17.4095  -17.7733   13.9217 N   0  0  0  0  0  0  0  0  0  0  0  0
  8  7  4  0
  7  6  4  0
 10  9  4  0
 11 10  4  0
 12 11  1  0
 13 12  1  0
 14 13  4  0
 15 14  4  0
 16 17  1  0
 18 17  1  6
 18 19  1  0
 19 20  1  0
 20 21  1  0
 22 21  1  0
 18 23  1  0
 23 22  1  0
 13 25  4  0
 25 24  4  0
 30 31  1  0
 30 29  4  0
  3 30  4  0
 28 29  4  0
  4 28  4  0
  5  4  1  0
  4  3  4  0
 27  5  4  0
  5  6  4  0
 26 27  4  0
 26  8  4  0
 11 26  4  0
  8  9  4  0
 15 16  4  0
 16 24  4  0
  3  2  1  0
  2  1  3  0
M  CHG  1  18   1
M  END
$$$$
