
     RDKit          3D

 31 35  0  0  0  0  0  0  0  0999 V2000
  -20.7364  -14.7136   13.6089 N   0  0  0  0  0  0  0  0  0  0  0  0
  -20.7466  -15.9176   13.2757 C   0  0  0  0  0  0  0  0  0  0  0  0
  -20.0349  -17.1749   12.7990 C   0  0  0  0  0  0  0  0  0  0  0  0
  -20.5876  -18.2016   12.1415 C   0  0  0  0  0  0  0  0  0  0  0  0
  -22.0258  -18.8528   12.3322 C   0  0  0  0  0  0  0  0  0  0  0  0
  -23.1591  -18.0951   11.9750 C   0  0  0  0  0  0  0  0  0  0  0  0
  -24.2074  -18.7565   11.2763 C   0  0  0  0  0  0  0  0  0  0  0  0
  -24.1136  -20.1449   10.9317 C   0  0  0  0  0  0  0  0  0  0  0  0
  -24.7293  -21.0008    9.9937 C   0  0  0  0  0  0  0  0  0  0  0  0
  -23.8389  -22.0321    9.6360 C   0  0  0  0  0  0  0  0  0  0  0  0
  -22.7799  -21.9004   10.4533 N   0  0  0  0  0  0  0  0  0  0  0  0
  -21.4910  -22.4697   10.2294 C   0  0  0  0  0  0  0  0  0  0  0  0
  -21.3661  -23.1565    8.8661 C   0  0  0  0  0  0  0  0  0  0  0  0
  -22.4870  -23.5128    8.0921 C   0  0  0  0  0  0  0  0  0  0  0  0
  -22.2875  -24.2907    6.9225 C   0  0  0  0  0  0  0  0  0  0  0  0
  -21.0539  -24.8631    6.6626 C   0  0  0  0  0  0  0  0  0  0  0  0
  -21.0107  -26.2928    5.9319 C   0  0  0  0  0  0  0  0  0  0  0  0
  -19.8422  -26.7332    5.7531 N   0  0  2  0  0  4  0  0  0  0  0  0
  -19.3780  -26.8336    4.4753 C   0  0  0  0  0  0  0  0  0  0  0  0
  -18.8512  -28.1850    4.0484 C   0  0  0  0  0  0  0  0  0  0  0  0
  -18.0185  -28.7985    4.9272 O   0  0  0  0  0  0  0  0  0  0  0  0
  -18.2722  -28.5388    6.2383 C   0  0  0  0  0  0  0  0  0  0  0  0
  -19.6356  -27.8571    6.5594 C   0  0  0  0  0  0  0  0  0  0  0  0
  -19.9302  -24.4126    7.3400 C   0  0  0  0  0  0  0  0  0  0  0  0
  -20.1070  -23.5983    8.4963 C   0  0  0  0  0  0  0  0  0  0  0  0
  -23.0211  -20.8918   11.3654 C   0  0  0  0  0  0  0  0  0  0  0  0
  -22.0803  -20.2701   12.3560 C   0  0  0  0  0  0  0  0  0  0  0  0
  -19.5975  -18.8583   11.5365 N   0  0  0  0  0  0  0  0  0  0  0  0
  -18.4442  -18.5101   12.0207 N   0  0  0  0  0  0  0  0  0  0  0  0
  -18.6139  -17.3919   12.7371 C   0  0  0  0  0  0  0  0  0  0  0  0
  -17.6410  -16.4796   13.1329 N   0  0  0  0  0  0  0  0  0  0  0  0
  8  7  4  0
  7  6  4  0
 10  9  4  0
 11 10  4  0
 12 11  1  0
 13 12  1  0
 14 13  4  0
 15 14  4  0
 16 17  1  0
 18 17  1  1
 18 19  1  0
 19 20  1  0
 18 23  1  0
 23 22  1  0
 13 25  4  0
 25 24  4  0
 30 31  1  0
 30 29  4  0
  3 30  4  0
 28 29  4  0
  4 28  4  0
  5  4  1  0
  4  3  4  0
 27  5  4  0
  5  6  4  0
 26 27  4  0
 26  8  4  0
 11 26  4  0
  8  9  4  0
 15 16  4  0
 16 24  4  0
 20 21  1  0
 21 22  1  0
  3  2  1  0
  2  1  3  0
M  CHG  1  18   1
M  END
$$$$
