
     RDKit          3D

 31 35  0  0  0  0  0  0  0  0999 V2000
  -21.6120  -15.1780   12.3860 N   0  0  0  0  0  0  0  0  0  0  0  0
  -21.0900  -16.1930   12.4120 C   0  0  0  0  0  0  0  0  0  0  0  0
  -20.3730  -17.5370   12.4500 C   0  0  0  0  0  0  0  0  0  0  0  0
  -20.9100  -18.7970   12.2780 C   0  0  0  0  0  0  0  0  0  0  0  0
  -22.3380  -19.1920   11.9040 C   0  0  0  0  0  0  0  0  0  0  0  0
  -23.3480  -18.2320   11.7600 C   0  0  0  0  0  0  0  0  0  0  0  0
  -24.6360  -18.6370   11.3560 C   0  0  0  0  0  0  0  0  0  0  0  0
  -24.9080  -20.0130   11.0770 C   0  0  0  0  0  0  0  0  0  0  0  0
  -26.0720  -20.7600   10.6530 C   0  0  0  0  0  0  0  0  0  0  0  0
  -25.7000  -22.0970   10.5280 C   0  0  0  0  0  0  0  0  0  0  0  0
  -24.4060  -22.1790   10.8410 N   0  0  0  0  0  0  0  0  0  0  0  0
  -23.6410  -23.4040   10.8720 C   0  0  0  0  0  0  0  0  0  0  0  0
  -22.7930  -23.6540    9.6300 C   0  0  0  0  0  0  0  0  0  0  0  0
  -23.3130  -23.5100    8.3380 C   0  0  0  0  0  0  0  0  0  0  0  0
  -22.4990  -23.7810    7.2210 C   0  0  0  0  0  0  0  0  0  0  0  0
  -21.1830  -24.2170    7.3910 C   0  0  0  0  0  0  0  0  0  0  0  0
  -20.3040  -24.5130    6.1450 C   0  0  0  0  0  0  0  0  0  0  0  0
  -19.7470  -25.6720    6.1530 N   0  0  1  0  0  4  0  0  0  0  0  0
  -20.5530  -26.7330    6.5450 C   0  0  0  0  0  0  0  0  0  0  0  0
  -20.3690  -28.0360    5.7910 C   0  0  0  0  0  0  0  0  0  0  0  0
  -20.2960  -27.8940    4.4240 O   0  0  0  0  0  0  0  0  0  0  0  0
  -19.7180  -26.7250    3.9810 C   0  0  0  0  0  0  0  0  0  0  0  0
  -18.9820  -25.9090    5.0280 C   0  0  0  0  0  0  0  0  0  0  0  0
  -20.6770  -24.3650    8.7020 C   0  0  0  0  0  0  0  0  0  0  0  0
  -21.4840  -24.0960    9.8120 C   0  0  0  0  0  0  0  0  0  0  0  0
  -23.9020  -20.9470   11.1910 C   0  0  0  0  0  0  0  0  0  0  0  0
  -22.5930  -20.5400   11.5850 C   0  0  0  0  0  0  0  0  0  0  0  0
  -19.9130  -19.6700   12.3850 N   0  0  0  0  0  0  0  0  0  0  0  0
  -18.7560  -19.0310   12.6600 N   0  0  0  0  0  0  0  0  0  0  0  0
  -19.0060  -17.7040   12.7020 C   0  0  0  0  0  0  0  0  0  0  0  0
  -18.0520  -16.6830   12.9630 N   0  0  0  0  0  0  0  0  0  0  0  0
  8  7  2  0
  7  6  1  0
 10  9  2  0
 11 10  1  0
 12 11  1  0
 13 12  1  0
 14 13  2  0
 15 14  1  0
 16 17  1  0
 18 17  1  6
 18 19  1  0
 19 20  1  0
 18 23  1  0
 23 22  1  0
 13 25  1  0
 25 24  2  0
 30 31  1  0
 30 29  1  0
  3 30  2  0
 28 29  1  0
  4 28  2  0
  5  4  1  0
  4  3  1  0
 27  5  1  0
  5  6  2  0
 26 27  2  0
 26  8  1  0
 11 26  1  0
  8  9  1  0
 15 16  2  0
 16 24  1  0
 20 21  1  0
 21 22  1  0
  3  2  1  0
  2  1  3  0
M  CHG  1  18   1
M  END
$$$$
