
     RDKit          3D

 29 33  0  0  0  0  0  0  0  0999 V2000
  -17.7710  -16.4380   12.7690 N   0  0  0  0  0  0  0  0  0  0  0  0
  -18.6280  -17.5920   12.7270 C   0  0  0  0  0  0  0  0  0  0  0  0
  -20.0130  -17.6270   12.4440 C   0  0  0  0  0  0  0  0  0  0  0  0
  -20.3980  -18.9910   12.5720 C   0  0  0  0  0  0  0  0  0  0  0  0
  -21.7350  -19.5320   12.2780 C   0  0  0  0  0  0  0  0  0  0  0  0
  -22.8370  -18.6540   12.1010 C   0  0  0  0  0  0  0  0  0  0  0  0
  -24.0860  -19.2050   11.7420 C   0  0  0  0  0  0  0  0  0  0  0  0
  -24.1820  -20.6180   11.5510 C   0  0  0  0  0  0  0  0  0  0  0  0
  -25.2270  -21.4670   11.1890 C   0  0  0  0  0  0  0  0  0  0  0  0
  -24.7170  -22.8140   11.1590 C   0  0  0  0  0  0  0  0  0  0  0  0
  -23.4630  -22.7680   11.4530 N   0  0  0  0  0  0  0  0  0  0  0  0
  -22.5470  -23.9280   11.5490 C   0  0  0  0  0  0  0  0  0  0  0  0
  -21.8530  -24.3280   10.2450 C   0  0  0  0  0  0  0  0  0  0  0  0
  -21.8500  -23.4820    9.0280 C   0  0  0  0  0  0  0  0  0  0  0  0
  -21.2150  -23.9090    7.9060 C   0  0  0  0  0  0  0  0  0  0  0  0
  -20.5470  -25.1870    7.8950 C   0  0  0  0  0  0  0  0  0  0  0  0
  -19.8150  -25.7100    6.6400 C   0  0  0  0  0  0  0  0  0  0  0  0
  -18.7720  -25.0850    6.3530 N   0  0  2  0  0  4  0  0  0  0  0  0
  -18.2860  -25.4980    5.0840 C   0  0  0  0  0  0  0  0  0  0  0  0
  -16.7690  -25.6730    4.9140 C   0  0  0  0  0  0  0  0  0  0  0  0
  -16.0100  -24.8630    5.8000 C   0  0  0  0  0  0  0  0  0  0  0  0
  -16.3520  -25.2100    7.1400 C   0  0  0  0  0  0  0  0  0  0  0  0
  -17.8240  -24.9670    7.4470 C   0  0  0  0  0  0  0  0  0  0  0  0
  -20.5730  -25.9880    9.0480 C   0  0  0  0  0  0  0  0  0  0  0  0
  -21.2370  -25.5350   10.2270 C   0  0  0  0  0  0  0  0  0  0  0  0
  -23.0830  -21.4520   11.7040 C   0  0  0  0  0  0  0  0  0  0  0  0
  -21.8150  -20.9170   12.0660 C   0  0  0  0  0  0  0  0  0  0  0  0
  -19.3250  -19.7310   12.8330 N   0  0  0  0  0  0  0  0  0  0  0  0
  -18.2170  -18.8920   12.9540 N   0  0  0  0  0  0  0  0  0  0  0  0
  8  7  2  0
  7  6  1  0
 10  9  2  0
 11 10  1  0
 12 11  1  0
 13 12  1  0
 14 13  2  0
 15 14  1  0
 16 17  1  0
 18 17  1  1
 18 19  1  0
 19 20  1  0
 20 21  1  0
 22 21  1  0
 18 23  1  0
 23 22  1  0
 13 25  1  0
 25 24  2  0
  2  1  1  0
  2 29  1  0
  3  2  2  0
 28 29  1  0
  4 28  2  0
  5  4  1  0
  4  3  1  0
 27  5  1  0
  5  6  2  0
 26 27  2  0
 26  8  1  0
 11 26  1  0
  8  9  1  0
 15 16  2  0
 16 24  1  0
M  CHG  1  18   1
M  END
$$$$
