
     RDKit          3D

 24 27  0  0  0  0  0  0  0  0999 V2000
  -23.3190  -20.6780    6.5060 C   0  0  0  0  0  0  0  0  0  0  0  0
  -22.1910  -21.5360    6.2210 O   0  0  0  0  0  0  0  0  0  0  0  0
  -21.8920  -22.5270    7.1850 C   0  0  0  0  0  0  0  0  0  0  0  0
  -21.0270  -23.5410    6.8740 C   0  0  0  0  0  0  0  0  0  0  0  0
  -20.7130  -24.5200    7.8260 C   0  0  0  0  0  0  0  0  0  0  0  0
  -21.2810  -24.4690    9.1100 C   0  0  0  0  0  0  0  0  0  0  0  0
  -22.1540  -23.4480    9.4270 C   0  0  0  0  0  0  0  0  0  0  0  0
  -22.7760  -23.3880   10.8240 C   0  0  0  0  0  0  0  0  0  0  0  0
  -23.6580  -22.2680   10.9140 N   0  0  0  0  0  0  0  0  0  0  0  0
  -24.9870  -22.3130   10.6420 C   0  0  0  0  0  0  0  0  0  0  0  0
  -25.4990  -21.0420   10.8210 C   0  0  0  0  0  0  0  0  0  0  0  0
  -24.4200  -20.1920   11.2350 C   0  0  0  0  0  0  0  0  0  0  0  0
  -24.3250  -18.8100   11.5620 C   0  0  0  0  0  0  0  0  0  0  0  0
  -23.0890  -18.2500   11.9360 C   0  0  0  0  0  0  0  0  0  0  0  0
  -21.9720  -19.0820   11.9780 C   0  0  0  0  0  0  0  0  0  0  0  0
  -20.5930  -18.5230   12.2920 C   0  0  0  0  0  0  0  0  0  0  0  0
  -20.1970  -17.1950   12.2280 C   0  0  0  0  0  0  0  0  0  0  0  0
  -18.8210  -17.1910   12.5210 C   0  0  0  0  0  0  0  0  0  0  0  0
  -17.9640  -16.0900   12.6150 N   0  0  0  0  0  0  0  0  0  0  0  0
  -18.4500  -18.4810   12.7070 N   0  0  0  0  0  0  0  0  0  0  0  0
  -19.5300  -19.2790   12.5430 N   0  0  0  0  0  0  0  0  0  0  0  0
  -22.0490  -20.4330   11.6330 C   0  0  0  0  0  0  0  0  0  0  0  0
  -23.2900  -21.0040   11.2680 C   0  0  0  0  0  0  0  0  0  0  0  0
  -22.4680  -22.4710    8.4770 C   0  0  0  0  0  0  0  0  0  0  0  0
 11 12  1  0
 12 13  2  0
 23 12  1  0
 24  7  2  0
  7  8  1  0
  7  6  1  0
  5  6  2  0
  4  5  1  0
  3 24  1  0
  2  1  1  0
 10 11  2  0
 18 19  1  0
 18 20  2  0
 17 18  1  0
 21 20  1  0
 16 21  1  0
 16 17  2  0
 15 16  1  0
 15 14  2  0
 22 15  1  0
 13 14  1  0
 23 22  2  0
  9 23  1  0
  8  9  1  0
  9 10  1  0
  3  4  2  0
  3  2  1  0
M  END
$$$$
