
     RDKit          3D

 34 38  0  0  0  0  0  0  0  0999 V2000
  -16.8613  -29.3763    3.8274 C   0  0  0  0  0  0  0  0  0  0  0  0
  -18.2108  -28.7353    4.1769 C   0  0  2  0  0  0  0  0  0  0  0  0
  -19.2566  -29.7770    4.4920 C   0  0  0  0  0  0  0  0  0  0  0  0
  -18.5145  -27.9148    3.1551 N   0  0  1  0  0  4  0  0  0  0  0  0
  -19.8595  -27.8192    2.9946 C   0  0  0  0  0  0  0  0  0  0  0  0
  -20.3315  -26.3847    2.7815 C   0  0  0  0  0  0  0  0  0  0  0  0
  -19.8649  -25.5311    3.6102 N   0  0  1  0  0  4  0  0  0  0  0  0
  -20.0605  -25.7152    4.8831 C   0  0  0  0  0  0  0  0  0  0  0  0
  -20.6893  -24.5554    5.7859 C   0  0  0  0  0  0  0  0  0  0  0  0
  -19.9133  -23.3350    5.7915 C   0  0  0  0  0  0  0  0  0  0  0  0
  -20.1872  -22.3888    6.7832 C   0  0  0  0  0  0  0  0  0  0  0  0
  -21.1461  -22.6851    7.7779 C   0  0  0  0  0  0  0  0  0  0  0  0
  -20.9736  -22.1250    9.2289 C   0  0  0  0  0  0  0  0  0  0  0  0
  -22.1515  -21.4739    9.7798 N   0  0  0  0  0  0  0  0  0  0  0  0
  -23.4219  -21.6898    9.3256 C   0  0  0  0  0  0  0  0  0  0  0  0
  -24.1881  -20.5730    9.5679 C   0  0  0  0  0  0  0  0  0  0  0  0
  -23.3256  -19.6403   10.3092 C   0  0  0  0  0  0  0  0  0  0  0  0
  -23.5969  -18.3730   10.9536 C   0  0  0  0  0  0  0  0  0  0  0  0
  -22.7059  -17.8943   11.8890 C   0  0  0  0  0  0  0  0  0  0  0  0
  -21.4625  -18.5700   12.0410 C   0  0  0  0  0  0  0  0  0  0  0  0
  -20.1701  -17.7277   12.2700 C   0  0  0  0  0  0  0  0  0  0  0  0
  -19.2252  -17.6831   11.3621 N   0  0  0  0  0  0  0  0  0  0  0  0
  -18.0016  -17.7013   11.8938 N   0  0  0  0  0  0  0  0  0  0  0  0
  -18.2022  -17.6374   13.2399 C   0  0  0  0  0  0  0  0  0  0  0  0
  -17.1530  -17.5664   14.2657 N   0  0  0  0  0  0  0  0  0  0  0  0
  -19.5330  -17.3866   13.5047 C   0  0  0  0  0  0  0  0  0  0  0  0
  -20.0896  -16.4497   14.5785 C   0  0  0  0  0  0  0  0  0  0  0  0
  -20.1067  -15.3759   15.0799 N   0  0  0  0  0  0  0  0  0  0  0  0
  -21.3026  -19.8805   11.5557 C   0  0  0  0  0  0  0  0  0  0  0  0
  -22.1554  -20.2943   10.5224 C   0  0  0  0  0  0  0  0  0  0  0  0
  -22.0111  -23.7523    7.6170 C   0  0  0  0  0  0  0  0  0  0  0  0
  -21.7052  -24.7133    6.6818 C   0  0  0  0  0  0  0  0  0  0  0  0
  -18.5291  -25.4154    3.4104 C   0  0  0  0  0  0  0  0  0  0  0  0
  -17.7887  -26.7749    3.3355 C   0  0  0  0  0  0  0  0  0  0  0  0
 29 20  4  0
 30 29  4  0
 17 18  4  0
 18 19  4  0
 16 17  4  0
 15 16  4  0
 10 11  4  0
 11 12  4  0
  9 10  4  0
  8  9  1  0
  9 32  4  0
  6  5  1  0
  4  5  1  1
  4  2  1  0
  2  1  1  6
  2  3  1  0
 24 25  1  0
 24 23  4  0
 26 24  4  0
 22 23  4  0
 21 22  4  0
 21 26  4  0
 20 21  1  0
 26 27  1  0
 27 28  3  0
 20 19  4  0
 30 17  4  0
 14 30  4  0
 14 15  4  0
 13 14  1  0
 12 13  1  0
 12 31  4  0
  7  8  1  1
  7  6  1  0
  7 33  1  0
  4 34  1  0
 34 33  1  0
 32 31  4  0
M  CHG  2   4   1   7   1
M  END
$$$$
