
     RDKit          3D

 17 18  0  0  0  0  0  0  0  0999 V2000
  -20.8694   22.7986   -6.6176 C   0  0  0  0  0  0  0  0  0  0  0  0
  -20.2225   22.6727   -7.8595 O   0  0  0  0  0  0  0  0  0  0  0  0
  -21.0903   22.7369   -8.9967 C   0  0  0  0  0  0  0  0  0  0  0  0
  -21.4903   23.9506   -9.4836 C   0  0  0  0  0  0  0  0  0  0  0  0
  -21.6627   24.1189  -10.8774 C   0  0  0  0  0  0  0  0  0  0  0  0
  -21.6633   23.0078  -11.6984 C   0  0  0  0  0  0  0  0  0  0  0  0
  -21.3380   21.6999  -11.1729 C   0  0  0  0  0  0  0  0  0  0  0  0
  -20.9515   20.6561  -12.1028 C   0  0  0  0  0  0  0  0  0  0  0  0
  -22.0847   19.8241  -12.4555 O   0  0  0  0  0  0  0  0  0  0  0  0
  -21.8919   18.4281  -12.2044 C   0  0  0  0  0  0  0  0  0  0  0  0
  -22.8477   17.6667  -12.0029 O   0  0  0  0  0  0  0  0  0  0  0  0
  -20.5409   17.8185  -12.5431 C   0  0  0  0  0  0  0  0  0  0  0  0
  -19.5004   17.5527  -11.6428 C   0  0  0  0  0  0  0  0  0  0  0  0
  -18.4845   17.1049  -12.3180 N   0  0  0  0  0  0  0  0  0  0  0  0
  -18.8225   16.8721  -13.6009 N   0  0  0  0  0  0  0  0  0  0  0  0
  -20.1754   17.2561  -13.7716 C   0  0  0  0  0  0  0  0  0  0  0  0
  -21.2405   21.6061   -9.8047 C   0  0  0  0  0  0  0  0  0  0  0  0
 12 13  4  0
 13 14  4  0
 16 15  4  0
 15 14  4  0
 12 16  4  0
  7  6  4  0
  6  5  4  0
  3  4  4  0
  5  4  4  0
  2  1  1  0
  3  2  1  0
 17  3  4  0
  7 17  4  0
  8  7  1  0
  9  8  1  0
 10  9  1  0
 10 12  1  0
 10 11  2  0
M  END
$$$$
