
     RDKit          3D

 21 22  0  0  0  0  0  0  0  0999 V2000
  -20.6407   26.7352   -5.3021 C   0  0  0  0  0  0  0  0  0  0  0  0
  -20.4429   25.6753   -6.2360 O   0  0  0  0  0  0  0  0  0  0  0  0
  -20.8196   24.4309   -5.8454 C   0  0  0  0  0  0  0  0  0  0  0  0
  -21.5359   24.3649   -4.7621 O   0  0  0  0  0  0  0  0  0  0  0  0
  -20.1909   23.1345   -6.3394 C   0  0  0  0  0  0  0  0  0  0  0  0
  -21.0829   22.1555   -6.8859 O   0  0  0  0  0  0  0  0  0  0  0  0
  -21.5634   22.3292   -8.2414 C   0  0  0  0  0  0  0  0  0  0  0  0
  -21.8579   23.6378   -8.6860 C   0  0  0  0  0  0  0  0  0  0  0  0
  -22.1490   23.8911  -10.0501 C   0  0  0  0  0  0  0  0  0  0  0  0
  -22.2196   22.7934  -10.9550 C   0  0  0  0  0  0  0  0  0  0  0  0
  -21.9274   21.5008  -10.5209 C   0  0  0  0  0  0  0  0  0  0  0  0
  -22.0976   20.3582  -11.5326 C   0  0  0  0  0  0  0  0  0  0  0  0
  -21.6426   19.0938  -11.0777 O   0  0  0  0  0  0  0  0  0  0  0  0
  -21.8807   17.9379  -11.9064 C   0  0  0  0  0  0  0  0  0  0  0  0
  -23.0278   17.6850  -12.2539 O   0  0  0  0  0  0  0  0  0  0  0  0
  -20.7480   17.2769  -12.6290 C   0  0  0  0  0  0  0  0  0  0  0  0
  -19.8300   17.8992  -13.4617 C   0  0  0  0  0  0  0  0  0  0  0  0
  -18.8073   17.1418  -13.5178 N   0  0  0  0  0  0  0  0  0  0  0  0
  -19.0075   15.9582  -12.9203 N   0  0  0  0  0  0  0  0  0  0  0  0
  -20.2691   15.9989  -12.4168 C   0  0  0  0  0  0  0  0  0  0  0  0
  -21.6788   21.2897   -9.1613 C   0  0  0  0  0  0  0  0  0  0  0  0
 16 20  4  0
 16 14  1  0
 16 17  4  0
 20 19  4  0
 14 15  2  0
 14 13  1  0
 13 12  1  0
 12 11  1  0
 11 10  4  0
 11 21  4  0
 10  9  4  0
  9  8  4  0
  8  7  4  0
  7  6  1  0
  7 21  4  0
  6  5  1  0
  5  3  1  0
  3  2  1  0
  3  4  2  0
  2  1  1  0
 17 18  4  0
 18 19  4  0
M  END
$$$$
