
     RDKit          3D

 21 22  0  0  0  0  0  0  0  0999 V2000
  -27.2950   16.2660   -4.7680 C   0  0  0  0  0  0  0  0  0  0  0  0
  -26.8820   16.4290   -6.1200 O   0  0  0  0  0  0  0  0  0  0  0  0
  -26.3950   17.7060   -6.4680 C   0  0  0  0  0  0  0  0  0  0  0  0
  -26.4790   18.5960   -5.6460 O   0  0  0  0  0  0  0  0  0  0  0  0
  -25.7580   17.9480   -7.8360 C   0  0  0  0  0  0  0  0  0  0  0  0
  -25.9450   19.2920   -8.3510 O   0  0  0  0  0  0  0  0  0  0  0  0
  -24.8430   19.8920   -9.1090 C   0  0  0  0  0  0  0  0  0  0  0  0
  -24.1120   20.9240   -8.5280 C   0  0  0  0  0  0  0  0  0  0  0  0
  -23.0580   21.5410   -9.2140 C   0  0  0  0  0  0  0  0  0  0  0  0
  -22.7370   21.1210  -10.5060 C   0  0  0  0  0  0  0  0  0  0  0  0
  -23.4580   20.0870  -11.1090 C   0  0  0  0  0  0  0  0  0  0  0  0
  -23.0620   19.6500  -12.5350 C   0  0  0  0  0  0  0  0  0  0  0  0
  -22.1780   18.5160  -12.5680 O   0  0  0  0  0  0  0  0  0  0  0  0
  -20.7960   18.7750  -12.8050 C   0  0  0  0  0  0  0  0  0  0  0  0
  -20.3830   19.9030  -12.9800 O   0  0  0  0  0  0  0  0  0  0  0  0
  -19.7880   17.6330  -12.8060 C   0  0  0  0  0  0  0  0  0  0  0  0
  -20.0700   16.2850  -12.8910 C   0  0  0  0  0  0  0  0  0  0  0  0
  -18.9110   15.6430  -12.8360 N   0  0  0  0  0  0  0  0  0  0  0  0
  -17.8680   16.5190  -12.7310 N   0  0  0  0  0  0  0  0  0  0  0  0
  -18.3970   17.7750  -12.7050 C   0  0  0  0  0  0  0  0  0  0  0  0
  -24.5150   19.4770  -10.4170 C   0  0  0  0  0  0  0  0  0  0  0  0
 16 20  2  0
 16 14  1  0
 16 17  1  0
 20 19  1  0
 14 15  2  0
 14 13  1  0
 13 12  1  0
 12 11  1  0
 11 10  2  0
 11 21  1  0
 10  9  1  0
  9  8  2  0
  8  7  1  0
  7  6  1  0
  7 21  2  0
  6  5  1  0
  5  3  1  0
  3  2  1  0
  3  4  2  0
  2  1  1  0
 17 18  2  0
 18 19  1  0
M  END
$$$$
