
     RDKit          3D

 69 71  0  0  0  0  0  0  0  0999 V2000
    4.9556    1.9115   12.0705 C   0  0  0  0  0  0  0  0  0  0  0  0
    5.4231    0.5998   11.6362 C   0  0  2  0  0  0  0  0  0  0  0  0
    5.7998   -0.2318   12.7993 C   0  0  0  0  0  0  0  0  0  0  0  0
    6.5784    0.7333   10.6192 C   0  0  0  0  0  0  0  0  0  0  0  0
    6.4927    1.7253    9.4672 C   0  0  2  0  0  0  0  0  0  0  0  0
    7.2694    2.9081    9.7834 N   0  0  0  0  0  0  0  0  0  0  0  0
    6.9434    4.2093    9.5335 C   0  0  0  0  0  0  0  0  0  0  0  0
    5.9490    4.5427    8.8854 O   0  0  0  0  0  0  0  0  0  0  0  0
    7.8763    5.2274   10.2188 C   0  0  1  0  0  0  0  0  0  0  0  0
    9.1102    5.5182    9.4073 C   0  0  0  0  0  0  0  0  0  0  0  0
    8.7772    6.1751    8.0294 C   0  0  0  0  0  0  0  0  0  0  0  0
    9.6057    6.8736    7.4723 O   0  0  0  0  0  0  0  0  0  0  0  0
    7.5363    6.1315    7.6803 O   0  0  0  0  0  0  0  0  0  0  0  0
    7.1287    6.4406   10.6515 N   0  0  0  0  0  0  0  0  0  0  0  0
    7.5673    7.7222   10.4214 C   0  0  0  0  0  0  0  0  0  0  0  0
    7.5324    8.2516    9.3273 O   0  0  0  0  0  0  0  0  0  0  0  0
    8.4007    8.3847   11.5460 C   0  0  1  0  0  0  0  0  0  0  0  0
    9.8168    8.1476   11.2984 N   0  0  0  0  0  0  0  0  0  0  0  0
    8.0925    9.9079   11.8064 C   0  0  1  0  0  0  0  0  0  0  0  0
    9.2312   10.8388   11.3612 C   0  0  0  0  0  0  0  0  0  0  0  0
    6.8595   10.3419   11.1642 O   0  0  0  0  0  0  0  0  0  0  0  0
    5.0534    2.1919    9.2022 C   0  0  0  0  0  0  0  0  0  0  0  0
    4.8796    3.4360    9.2187 O   0  0  0  0  0  0  0  0  0  0  0  0
    3.9856    1.3600    9.3155 N   0  0  0  0  0  0  0  0  0  0  0  0
    3.2959    0.5854    8.2493 C   0  0  0  0  0  0  0  0  0  0  0  0
    2.2429   -0.1222    9.0199 C   0  0  0  0  0  0  0  0  0  0  0  0
    1.7589    0.9088   10.0146 C   0  0  0  0  0  0  0  0  0  0  0  0
    3.0927    1.5513   10.4630 C   0  0  2  0  0  0  0  0  0  0  0  0
    2.8352    2.9678   10.9011 C   0  0  0  0  0  0  0  0  0  0  0  0
    2.0298    3.1924   11.8352 O   0  0  0  0  0  0  0  0  0  0  0  0
    3.3468    3.9384   10.1566 N   0  0  0  0  0  0  0  0  0  0  0  0
    2.8473    4.4937    8.9024 C   0  0  1  0  0  0  0  0  0  0  0  0
    3.8469    4.2332    7.7773 C   0  0  0  0  0  0  0  0  0  0  0  0
    3.2784    4.4361    6.4903 O   0  0  0  0  0  0  0  0  0  0  0  0
    1.7704    4.8591    6.4798 P   0  0  1  0  0  0  0  0  0  0  0  0
    0.7684    3.8136    6.0804 O   0  0  0  0  0  0  0  0  0  0  0  0
    1.5460    5.3215    7.8524 O   0  0  0  0  0  0  0  0  0  0  0  0
    1.6015    6.0058    5.3969 O   0  0  0  0  0  0  0  0  0  0  0  0
    1.6444    3.6696    8.4567 C   0  0  0  0  0  0  0  0  0  0  0  0
    1.8405    2.5450    7.9591 O   0  0  0  0  0  0  0  0  0  0  0  0
    0.4589    4.0641    8.9067 N   0  0  0  0  0  0  0  0  0  0  0  0
   -0.3310    3.3348    9.9417 C   0  0  2  0  0  0  0  0  0  0  0  0
    0.2737    1.9399   10.1914 C   0  0  0  0  0  0  0  0  0  0  0  0
    1.7629    2.0406   10.5677 C   0  0  0  0  0  0  0  0  0  0  0  0
    2.5476    2.5100    9.7675 O   0  0  0  0  0  0  0  0  0  0  0  0
    2.0864    1.8794   11.7629 O   0  0  0  0  0  0  0  0  0  0  0  0
   -1.8013    3.2058    9.4231 C   0  0  0  0  0  0  0  0  0  0  0  0
   -2.1875    4.0584    8.6346 O   0  0  0  0  0  0  0  0  0  0  0  0
   -2.4832    2.0801    9.7783 N   0  0  0  0  0  0  0  0  0  0  0  0
   -2.8348    0.9385    8.8856 C   0  0  0  0  0  0  0  0  0  0  0  0
   -3.6972    0.0419    9.7446 C   0  0  0  0  0  0  0  0  0  0  0  0
   -4.3467    0.9865   10.6985 C   0  0  0  0  0  0  0  0  0  0  0  0
   -3.2779    2.0193   11.0092 C   0  0  1  0  0  0  0  0  0  0  0  0
   -2.4488    1.5771   12.2429 C   0  0  0  0  0  0  0  0  0  0  0  0
   -2.9626    1.7567   13.3431 O   0  0  0  0  0  0  0  0  0  0  0  0
   -1.0747    1.8479   12.0455 N   0  0  0  0  0  0  0  0  0  0  0  0
   -0.0470    1.8588   13.1410 C   0  0  0  0  0  0  0  0  0  0  0  0
    1.0477    2.7034   12.5854 C   0  0  0  0  0  0  0  0  0  0  0  0
    0.4172    3.6117   11.6181 C   0  0  0  0  0  0  0  0  0  0  0  0
   -0.7445    2.8760   11.0136 C   0  0  2  0  0  0  0  0  0  0  0  0
   -1.9925    3.8308   10.7503 C   0  0  0  0  0  0  0  0  0  0  0  0
   -2.8824    3.4238   10.0025 O   0  0  0  0  0  0  0  0  0  0  0  0
   -2.2969    4.5590   11.9265 N   0  0  0  0  0  0  0  0  0  0  0  0
   -3.5040    5.3729   12.0326 C   0  0  1  0  0  0  0  0  0  0  0  0
   -3.2252    6.7294   11.4874 C   0  0  0  0  0  0  0  0  0  0  0  0
   -4.3373    7.6719   11.9827 O   0  0  0  0  0  0  0  0  0  0  0  0
   -4.7535    4.6837   11.3654 C   0  0  0  0  0  0  0  0  0  0  0  0
   -5.8403    4.8709   11.9365 O   0  0  0  0  0  0  0  0  0  0  0  0
   -4.7796    4.7771   10.1393 O   0  0  0  0  0  0  0  0  0  0  0  0
 17 18  1  6
 17 15  1  0
 17 19  1  0
 15 16  2  0
 15 14  1  0
 19 21  1  0
 19 20  1  6
 14  9  1  0
  9  7  1  0
  9 10  1  1
  7  8  2  0
  7  6  1  0
 10 11  1  0
 11 13  1  0
 11 12  2  0
  6  5  1  0
  5 22  1  0
  5  4  1  1
 22 23  2  0
 22 24  1  0
  4  2  1  0
  2  1  1  6
  2  3  1  0
 24 28  1  0
 24 25  1  0
 28 29  1  1
 28 27  1  0
 29 30  2  0
 29 31  1  0
 27 26  1  0
 26 25  1  0
 31 32  1  0
 32 33  1  6
 32 39  1  0
 33 34  1  0
 34 35  1  0
 39 40  2  0
 39 41  1  0
 35 36  2  0
 35 37  1  1
 35 38  1  0
 41 42  1  0
 42 47  1  0
 42 43  1  1
 47 48  2  0
 47 49  1  0
 43 44  1  0
 44 46  1  0
 44 45  2  0
 49 53  1  0
 49 50  1  0
 53 54  1  1
 53 52  1  0
 54 55  2  0
 54 56  1  0
 52 51  1  0
 51 50  1  0
 56 60  1  0
 56 57  1  0
 60 61  1  6
 60 59  1  0
 61 62  2  0
 61 63  1  0
 59 58  1  0
 58 57  1  0
 63 64  1  0
 64 67  1  0
 64 65  1  6
 67 68  2  0
 67 69  1  0
 65 66  1  0
M  CHG  1  18   1
M  END
$$$$
