
     RDKit          3D

 69 71  0  0  0  0  0  0  0  0999 V2000
   14.5450    4.5360   -0.8480 C   0  0  0  0  0  0  0  0  0  0  0  0
   14.0080    4.3020    0.5280 C   0  0  1  0  0  0  0  0  0  0  0  0
   14.8680    3.2600    1.1840 C   0  0  0  0  0  0  0  0  0  0  0  0
   13.9930    5.6030    1.3260 C   0  0  0  0  0  0  0  0  0  0  0  0
   13.0340    5.7780    2.5300 C   0  0  2  0  0  0  0  0  0  0  0  0
   13.5810    5.1430    3.7260 N   0  0  0  0  0  0  0  0  0  0  0  0
   13.4470    5.5570    5.0030 C   0  0  0  0  0  0  0  0  0  0  0  0
   12.8980    6.6190    5.3230 O   0  0  0  0  0  0  0  0  0  0  0  0
   14.0340    4.5750    6.0560 C   0  0  2  0  0  0  0  0  0  0  0  0
   13.6570    4.9370    7.5070 C   0  0  0  0  0  0  0  0  0  0  0  0
   14.1670    3.9170    8.5190 C   0  0  0  0  0  0  0  0  0  0  0  0
   14.9890    4.2950    9.3800 O   0  0  0  0  0  0  0  0  0  0  0  0
   13.7750    2.7300    8.4210 O   0  0  0  0  0  0  0  0  0  0  0  0
   15.4840    4.3860    5.8840 N   0  0  0  0  0  0  0  0  0  0  0  0
   16.0630    3.1840    5.6040 C   0  0  0  0  0  0  0  0  0  0  0  0
   15.4170    2.1370    5.4770 O   0  0  0  0  0  0  0  0  0  0  0  0
   17.5950    3.1660    5.4100 C   0  0  1  0  0  0  0  0  0  0  0  0
   18.0640    4.5110    5.0630 N   0  0  0  0  0  0  0  0  0  0  0  0
   18.4050    2.5400    6.6090 C   0  0  1  0  0  0  0  0  0  0  0  0
   18.3110    1.0080    6.6630 C   0  0  0  0  0  0  0  0  0  0  0  0
   19.7870    2.9290    6.5780 O   0  0  0  0  0  0  0  0  0  0  0  0
   11.6450    5.1540    2.2720 C   0  0  0  0  0  0  0  0  0  0  0  0
   11.4260    4.0500    2.7510 O   0  0  0  0  0  0  0  0  0  0  0  0
   10.6810    5.7950    1.5700 N   0  0  0  0  0  0  0  0  0  0  0  0
   10.7130    7.1230    0.9320 C   0  0  0  0  0  0  0  0  0  0  0  0
    9.5820    7.0450   -0.0560 C   0  0  0  0  0  0  0  0  0  0  0  0
    8.5460    6.2420    0.6640 C   0  0  0  0  0  0  0  0  0  0  0  0
    9.3430    5.1840    1.4280 C   0  0  1  0  0  0  0  0  0  0  0  0
    9.2850    3.8490    0.7140 C   0  0  0  0  0  0  0  0  0  0  0  0
   10.0270    3.6360   -0.2440 O   0  0  0  0  0  0  0  0  0  0  0  0
    8.3740    2.9670    1.1870 N   0  0  0  0  0  0  0  0  0  0  0  0
    8.0870    1.6270    0.6580 C   0  0  1  0  0  0  0  0  0  0  0  0
    7.0230    0.9570    1.5130 C   0  0  0  0  0  0  0  0  0  0  0  0
    7.3050    1.0070    2.9050 O   0  0  0  0  0  0  0  0  0  0  0  0
    6.3810    1.9020    3.7640 P   0  0  1  0  0  0  0  0  0  0  0  0
    4.9340    1.9510    3.3560 O   0  0  0  0  0  0  0  0  0  0  0  0
    6.4830    1.2630    5.1370 O   0  0  0  0  0  0  0  0  0  0  0  0
    6.8920    3.3580    3.7010 O   0  0  0  0  0  0  0  0  0  0  0  0
    7.3630    1.7630   -0.6670 C   0  0  0  0  0  0  0  0  0  0  0  0
    7.4310    0.8540   -1.5000 O   0  0  0  0  0  0  0  0  0  0  0  0
    6.6630    2.9060   -0.8530 N   0  0  0  0  0  0  0  0  0  0  0  0
    5.9060    3.2320   -2.0540 C   0  0  1  0  0  0  0  0  0  0  0  0
    4.6080    3.9720   -1.6900 C   0  0  0  0  0  0  0  0  0  0  0  0
    3.6650    3.1530   -0.8320 C   0  0  0  0  0  0  0  0  0  0  0  0
    3.4570    3.5280    0.3420 O   0  0  0  0  0  0  0  0  0  0  0  0
    3.1520    2.1210   -1.3270 O   0  0  0  0  0  0  0  0  0  0  0  0
    6.7620    4.0640   -3.0170 C   0  0  0  0  0  0  0  0  0  0  0  0
    7.4710    4.9750   -2.5620 O   0  0  0  0  0  0  0  0  0  0  0  0
    6.7110    3.7650   -4.3470 N   0  0  0  0  0  0  0  0  0  0  0  0
    5.9390    2.7090   -5.0230 C   0  0  0  0  0  0  0  0  0  0  0  0
    6.6330    2.5760   -6.3260 C   0  0  0  0  0  0  0  0  0  0  0  0
    7.1540    3.8960   -6.6600 C   0  0  0  0  0  0  0  0  0  0  0  0
    7.5170    4.5320   -5.3210 C   0  0  1  0  0  0  0  0  0  0  0  0
    7.1790    6.0150   -5.3480 C   0  0  0  0  0  0  0  0  0  0  0  0
    6.0560    6.3710   -4.9770 O   0  0  0  0  0  0  0  0  0  0  0  0
    8.1170    6.8940   -5.7840 N   0  0  0  0  0  0  0  0  0  0  0  0
    9.4850    6.6190   -6.2780 C   0  0  0  0  0  0  0  0  0  0  0  0
    9.8570    7.8750   -6.9880 C   0  0  0  0  0  0  0  0  0  0  0  0
    9.1310    8.9730   -6.2770 C   0  0  0  0  0  0  0  0  0  0  0  0
    7.8070    8.3440   -5.8350 C   0  0  1  0  0  0  0  0  0  0  0  0
    6.6500    8.6910   -6.7880 C   0  0  0  0  0  0  0  0  0  0  0  0
    6.5250    8.0820   -7.8710 O   0  0  0  0  0  0  0  0  0  0  0  0
    5.7800    9.6280   -6.3390 N   0  0  0  0  0  0  0  0  0  0  0  0
    4.5820   10.1080   -7.0410 C   0  0  1  0  0  0  0  0  0  0  0  0
    3.4620   10.3990   -6.0440 C   0  0  0  0  0  0  0  0  0  0  0  0
    3.9440   10.9690   -4.8360 O   0  0  0  0  0  0  0  0  0  0  0  0
    4.8660   11.3390   -7.9000 C   0  0  0  0  0  0  0  0  0  0  0  0
    4.3030   11.4750   -8.9860 O   0  0  0  0  0  0  0  0  0  0  0  0
    5.6580   12.1950   -7.5060 O   0  0  0  0  0  0  0  0  0  0  0  0
 17 18  1  1
 17 15  1  0
 17 19  1  0
 15 16  2  0
 15 14  1  0
 19 21  1  0
 19 20  1  6
 14  9  1  0
  9  7  1  0
  9 10  1  1
  7  8  2  0
  7  6  1  0
 10 11  1  0
 11 13  1  0
 11 12  2  0
  6  5  1  0
  5 22  1  0
  5  4  1  6
 22 23  2  0
 22 24  1  0
  4  2  1  0
  2  1  1  6
  2  3  1  0
 24 28  1  0
 24 25  1  0
 28 29  1  6
 28 27  1  0
 29 30  2  0
 29 31  1  0
 27 26  1  0
 26 25  1  0
 31 32  1  0
 32 33  1  1
 32 39  1  0
 33 34  1  0
 34 35  1  0
 39 40  2  0
 39 41  1  0
 35 36  2  0
 35 37  1  1
 35 38  1  0
 41 42  1  0
 42 47  1  0
 42 43  1  1
 47 48  2  0
 47 49  1  0
 43 44  1  0
 44 46  1  0
 44 45  2  0
 49 53  1  0
 49 50  1  0
 53 54  1  6
 53 52  1  0
 54 55  2  0
 54 56  1  0
 52 51  1  0
 51 50  1  0
 56 60  1  0
 56 57  1  0
 60 61  1  6
 60 59  1  0
 61 62  2  0
 61 63  1  0
 59 58  1  0
 58 57  1  0
 63 64  1  0
 64 67  1  0
 64 65  1  1
 67 68  2  0
 67 69  1  0
 65 66  1  0
M  CHG  1  18   1
M  END
$$$$
