
     RDKit          3D

 74 75  0  0  0  0  0  0  0  0999 V2000
   13.2645   41.4231    5.8864 C   0  0  0  0  0  0  0  0  0  0  0  0
   14.4787   41.3078    6.8104 C   0  0  1  0  0  0  0  0  0  0  0  0
   15.3582   40.2381    6.1790 C   0  0  0  0  0  0  0  0  0  0  0  0
   15.2537   42.6001    6.9637 C   0  0  0  0  0  0  0  0  0  0  0  0
   15.3706   43.2391    8.3923 C   0  0  2  0  0  0  0  0  0  0  0  0
   15.5810   42.2161    9.4052 N   0  0  0  0  0  0  0  0  0  0  0  0
   14.6382   41.8732   10.3144 C   0  0  0  0  0  0  0  0  0  0  0  0
   13.4326   41.8540    9.9966 O   0  0  0  0  0  0  0  0  0  0  0  0
   15.1288   41.3369   11.6740 C   0  0  1  0  0  0  0  0  0  0  0  0
   14.8872   39.8763   11.8020 N   0  0  0  0  0  0  0  0  0  0  0  0
   16.5810   41.6997   11.9611 C   0  0  0  0  0  0  0  0  0  0  0  0
   17.3591   41.6590   10.7815 O   0  0  0  0  0  0  0  0  0  0  0  0
   14.1905   44.0926    8.7361 C   0  0  0  0  0  0  0  0  0  0  0  0
   13.7049   44.0716    9.8849 O   0  0  0  0  0  0  0  0  0  0  0  0
   13.4824   44.6796    7.7514 N   0  0  0  0  0  0  0  0  0  0  0  0
   13.9469   44.5965    6.3385 C   0  0  2  0  0  0  0  0  0  0  0  0
   15.4620   44.5942    6.2600 C   0  0  0  0  0  0  0  0  0  0  0  0
   16.1946   45.6604    7.0295 C   0  0  0  0  0  0  0  0  0  0  0  0
   17.5007   45.6586    6.9929 O   0  0  0  0  0  0  0  0  0  0  0  0
   15.5588   46.6718    7.4508 O   0  0  0  0  0  0  0  0  0  0  0  0
   13.3524   45.7474    5.5145 C   0  0  0  0  0  0  0  0  0  0  0  0
   13.5562   45.7122    4.3184 O   0  0  0  0  0  0  0  0  0  0  0  0
   12.5182   46.6261    6.1708 N   0  0  0  0  0  0  0  0  0  0  0  0
   11.0439   46.4909    6.1391 C   0  0  2  0  0  0  0  0  0  0  0  0
   10.5902   45.1585    6.6714 C   0  0  0  0  0  0  0  0  0  0  0  0
   10.9194   44.9640    8.0410 O   0  0  0  0  0  0  0  0  0  0  0  0
   10.5858   46.6430    4.7345 C   0  0  0  0  0  0  0  0  0  0  0  0
   11.3456   46.6706    3.7500 O   0  0  0  0  0  0  0  0  0  0  0  0
    9.2340   46.4844    4.5665 N   0  0  0  0  0  0  0  0  0  0  0  0
    8.3828   47.2365    3.6326 C   0  0  1  0  0  0  0  0  0  0  0  0
    7.6320   48.2471    4.5509 C   0  0  0  0  0  0  0  0  0  0  0  0
    8.3282   48.4135    5.7483 O   0  0  0  0  0  0  0  0  0  0  0  0
    9.8253   48.0044    5.5271 P   0  0  1  0  0  0  0  0  0  0  0  0
    9.7921   46.5993    6.0960 O   0  0  0  0  0  0  0  0  0  0  0  0
   10.3578   47.9483    4.0362 O   0  0  0  0  0  0  0  0  0  0  0  0
   10.7079   48.8917    6.4081 O   0  0  0  0  0  0  0  0  0  0  0  0
    9.2571   48.0065    2.6048 C   0  0  0  0  0  0  0  0  0  0  0  0
   10.0607   48.8456    3.0014 O   0  0  0  0  0  0  0  0  0  0  0  0
    8.9425   47.9157    1.3039 N   0  0  0  0  0  0  0  0  0  0  0  0
    8.8047   46.6918    0.4316 C   0  0  0  0  0  0  0  0  0  0  0  0
    9.4151   47.1641   -0.8045 C   0  0  0  0  0  0  0  0  0  0  0  0
    9.2195   48.6428   -0.9293 C   0  0  0  0  0  0  0  0  0  0  0  0
    8.8666   49.1335    0.4874 C   0  0  1  0  0  0  0  0  0  0  0  0
    7.5082   49.7928    0.4990 C   0  0  0  0  0  0  0  0  0  0  0  0
    7.3545   50.8686    1.1220 O   0  0  0  0  0  0  0  0  0  0  0  0
    6.3708   49.0331    0.2933 N   0  0  0  0  0  0  0  0  0  0  0  0
    6.0162   48.3308   -0.9798 C   0  0  0  0  0  0  0  0  0  0  0  0
    5.8063   46.9336   -0.4852 C   0  0  0  0  0  0  0  0  0  0  0  0
    5.2405   47.0661    0.8742 C   0  0  0  0  0  0  0  0  0  0  0  0
    5.6766   48.3853    1.4217 C   0  0  1  0  0  0  0  0  0  0  0  0
    6.5655   48.3299    2.6949 C   0  0  0  0  0  0  0  0  0  0  0  0
    7.3028   49.2570    3.0062 O   0  0  0  0  0  0  0  0  0  0  0  0
    6.2127   47.3915    3.6015 N   0  0  0  0  0  0  0  0  0  0  0  0
    5.8263   47.7417    4.9830 C   0  0  2  0  0  0  0  0  0  0  0  0
    4.4069   48.2971    4.9929 C   0  0  0  0  0  0  0  0  0  0  0  0
    4.2808   49.8197    4.8663 C   0  0  0  0  0  0  0  0  0  0  0  0
    4.3299   50.3100    3.6742 N   0  0  0  0  0  0  0  0  0  0  0  0
    4.3481   50.6000    5.8862 O   0  0  0  0  0  0  0  0  0  0  0  0
    6.8875   48.6830    5.5069 C   0  0  0  0  0  0  0  0  0  0  0  0
    7.4439   49.4779    4.7306 O   0  0  0  0  0  0  0  0  0  0  0  0
    6.9288   48.9131    6.8330 N   0  0  0  0  0  0  0  0  0  0  0  0
    5.8410   48.4104    7.7585 C   0  0  1  0  0  0  0  0  0  0  0  0
    5.2487   49.5289    8.6338 C   0  0  0  0  0  0  0  0  0  0  0  0
    5.3464   50.7457    8.3376 O   0  0  0  0  0  0  0  0  0  0  0  0
    4.7061   49.1309    9.8224 N   0  0  0  0  0  0  0  0  0  0  0  0
    5.0480   47.9396   10.6093 C   0  0  2  0  0  0  0  0  0  0  0  0
    3.8397   47.3665   11.3522 C   0  0  0  0  0  0  0  0  0  0  0  0
    3.4059   48.2427   12.3432 O   0  0  0  0  0  0  0  0  0  0  0  0
    6.2154   48.2450   11.5691 C   0  0  0  0  0  0  0  0  0  0  0  0
    6.9315   47.2865   12.0457 O   0  0  0  0  0  0  0  0  0  0  0  0
    6.6725   49.3755   11.6936 O   0  0  0  0  0  0  0  0  0  0  0  0
    4.8258   47.6160    6.9630 C   0  0  2  0  0  0  0  0  0  0  0  0
    3.6032   47.1876    7.8671 C   0  0  0  0  0  0  0  0  0  0  0  0
    5.3925   46.4161    6.3957 O   0  0  0  0  0  0  0  0  0  0  0  0
  9 10  1  6
  9  7  1  0
  9 11  1  0
  7  8  2  0
  7  6  1  0
 11 12  1  0
  6  5  1  0
  5 13  1  0
  5  4  1  6
 13 14  2  0
 13 15  1  0
  4  2  1  0
  2  1  1  6
  2  3  1  0
 15 16  1  0
 16 21  1  0
 16 17  1  6
 21 22  2  0
 21 23  1  0
 17 18  1  0
 18 20  1  0
 18 19  2  0
 23 24  1  0
 24 27  1  0
 24 25  1  1
 27 28  2  0
 27 29  1  0
 25 26  1  0
 29 30  1  0
 30 31  1  1
 30 37  1  0
 31 32  1  0
 32 33  1  0
 37 38  2  0
 37 39  1  0
 33 34  2  0
 33 35  1  6
 33 36  1  0
 39 43  1  0
 39 40  1  0
 43 44  1  6
 43 42  1  0
 44 45  2  0
 44 46  1  0
 42 41  1  0
 41 40  1  0
 46 50  1  0
 46 47  1  0
 50 51  1  1
 50 49  1  0
 51 52  2  0
 51 53  1  0
 49 48  1  0
 48 47  1  0
 53 54  1  0
 54 59  1  0
 54 55  1  1
 59 60  2  0
 59 61  1  0
 55 56  1  0
 56 58  2  0
 56 57  1  0
 62 61  1  1
 62 63  1  0
 62 72  1  0
 63 64  2  0
 63 65  1  0
 72 74  1  0
 72 73  1  6
 65 66  1  0
 66 69  1  0
 66 67  1  6
 69 71  1  0
 69 70  2  0
 67 68  1  0
M  CHG  1  10   1
M  END
$$$$
