
     RDKit          3D

 79 80  0  0  0  0  0  0  0  0999 V2000
   -4.1568   -3.5551   32.5215 H   0  0  0  0  0  0  0  0  0  0  0  0
   -5.0960   -3.2020   32.7050 N   0  0  0  0  0  0  0  0  0  0  0  0
   -5.5250   -2.1090   32.0900 C   0  0  0  0  0  0  0  0  0  0  0  0
   -6.7500   -1.6580   32.3290 N   0  0  0  0  0  0  0  0  0  0  0  0
   -4.7310   -1.4730   31.2340 N   0  0  0  0  0  0  0  0  0  0  0  0
   -5.1030   -0.2630   30.5090 C   0  0  0  0  0  0  0  0  0  0  0  0
   -5.9230   -0.5620   29.2640 C   0  0  0  0  0  0  0  0  0  0  0  0
   -5.0840   -1.1930   28.1640 C   0  0  0  0  0  0  0  0  0  0  0  0
   -5.8650   -1.4250   26.8710 C   0  0  2  0  0  0  0  0  0  0  0  0
   -5.0090   -2.0700   25.8920 N   0  0  0  0  0  0  0  0  0  0  0  0
   -5.5450   -2.6230   24.8150 C   0  0  0  0  0  0  0  0  0  0  0  0
   -6.7640   -2.6610   24.6470 O   0  0  0  0  0  0  0  0  0  0  0  0
   -4.6030   -3.1930   23.7640 C   0  0  2  0  0  0  0  0  0  0  0  0
   -5.2440   -4.4090   23.0970 C   0  0  0  0  0  0  0  0  0  0  0  0
   -4.4500   -4.9850   21.9650 C   0  0  0  0  0  0  0  0  0  0  0  0
   -4.2480   -4.0080   20.8300 C   0  0  0  0  0  0  0  0  0  0  0  0
   -5.4640   -3.7680   20.0540 N   0  0  0  0  0  0  0  0  0  0  0  0
   -5.6910   -2.6980   19.3080 C   0  0  0  0  0  0  0  0  0  0  0  0
   -4.8000   -1.7130   19.2510 N   0  0  0  0  0  0  0  0  0  0  0  0
   -6.8190   -2.6000   18.6310 N   0  0  0  0  0  0  0  0  0  0  0  0
   -7.5119   -3.3467   18.6836 H   0  0  0  0  0  0  0  0  0  0  0  0
   -3.2830   -3.4850   24.3070 N   0  0  0  0  0  0  0  0  0  0  0  0
   -2.2090   -2.7310   24.0330 C   0  0  0  0  0  0  0  0  0  0  0  0
   -2.2680   -1.7750   23.2460 O   0  0  0  0  0  0  0  0  0  0  0  0
   -0.8890   -3.0790   24.7140 C   0  0  1  0  0  0  0  0  0  0  0  0
   -1.1030   -3.7820   25.9740 N   0  0  0  0  0  0  0  0  0  0  0  0
   -1.7760   -3.2080   26.9640 C   0  0  0  0  0  0  0  0  0  0  0  0
   -2.1750   -2.0490   26.9050 O   0  0  0  0  0  0  0  0  0  0  0  0
   -2.0430   -4.0770   28.1920 C   0  0  2  0  0  0  0  0  0  0  0  0
   -0.9590   -3.8340   29.2390 C   0  0  0  0  0  0  0  0  0  0  0  0
   -1.2770   -4.4440   30.5930 C   0  0  0  0  0  0  0  0  0  0  0  0
   -0.1620   -4.2490   31.5980 C   0  0  0  0  0  0  0  0  0  0  0  0
    0.8600   -3.6280   31.2390 O   0  0  0  0  0  0  0  0  0  0  0  0
   -0.3070   -4.7180   32.7470 O   0  0  0  0  0  0  0  0  0  0  0  0
   -2.1220   -5.5030   27.8710 N   0  0  0  0  0  0  0  0  0  0  0  0
   -2.9980   -5.9880   26.9770 C   0  0  0  0  0  0  0  0  0  0  0  0
   -2.9560   -7.4770   26.7630 C   0  0  0  0  0  0  0  0  0  0  0  0
   -3.7950   -5.2820   26.3530 O   0  0  0  0  0  0  0  0  0  0  0  0
    0.0550   -3.9130   23.8310 C   0  0  1  0  0  0  0  0  0  0  0  0
   -0.6210   -5.1860   23.3330 C   0  0  0  0  0  0  0  0  0  0  0  0
    0.5610   -3.0960   22.6450 C   0  0  0  0  0  0  0  0  0  0  0  0
    1.5960   -2.0680   23.0210 C   0  0  0  0  0  0  0  0  0  0  0  0
   -6.3780   -0.0980   26.3270 C   0  0  0  0  0  0  0  0  0  0  0  0
   -5.6160    0.7130   25.7920 O   0  0  0  0  0  0  0  0  0  0  0  0
   -7.6740    0.1260   26.4630 N   0  0  0  0  0  0  0  0  0  0  0  0
   -8.2880    1.3680   25.9910 C   0  0  2  0  0  0  0  0  0  0  0  0
   -7.9690    2.4720   26.9960 C   0  0  0  0  0  0  0  0  0  0  0  0
   -8.1200    2.2540   28.2100 O   0  0  0  0  0  0  0  0  0  0  0  0
   -7.5350    3.6420   26.5470 N   0  0  0  0  0  0  0  0  0  0  0  0
   -7.2110    4.0090   25.1570 C   0  0  0  0  0  0  0  0  0  0  0  0
   -6.9330    5.4800   25.2490 C   0  0  0  0  0  0  0  0  0  0  0  0
   -6.5580    5.7790   26.6200 C   0  0  0  0  0  0  0  0  0  0  0  0
   -7.2410    4.7210   27.4950 C   0  0  1  0  0  0  0  0  0  0  0  0
   -8.4930    5.2900   28.1470 C   0  0  0  0  0  0  0  0  0  0  0  0
   -9.5820    5.2620   27.5830 O   0  0  0  0  0  0  0  0  0  0  0  0
   -8.3170    5.8290   29.3520 N   0  0  0  0  0  0  0  0  0  0  0  0
   -9.3240    6.6550   30.0050 C   0  0  1  0  0  0  0  0  0  0  0  0
   -9.6510    6.1420   31.4120 C   0  0  0  0  0  0  0  0  0  0  0  0
  -10.6240    4.9610   31.4490 C   0  0  0  0  0  0  0  0  0  0  0  0
  -12.0330    5.3180   30.9750 C   0  0  0  0  0  0  0  0  0  0  0  0
  -12.5800    4.5520   30.1520 O   0  0  0  0  0  0  0  0  0  0  0  0
  -12.5970    6.3520   31.4240 O   0  0  0  0  0  0  0  0  0  0  0  0
   -8.8060    8.0870   30.1060 C   0  0  0  0  0  0  0  0  0  0  0  0
   -7.5970    8.3190   30.2050 O   0  0  0  0  0  0  0  0  0  0  0  0
   -9.7230    9.0510   30.0770 N   0  0  0  0  0  0  0  0  0  0  0  0
   -9.3130   10.4530   30.1150 C   0  0  1  0  0  0  0  0  0  0  0  0
  -10.4640   11.3870   29.7370 C   0  0  0  0  0  0  0  0  0  0  0  0
  -10.0910   12.8430   29.7810 C   0  0  0  0  0  0  0  0  0  0  0  0
   -9.0100   13.3140   29.0550 C   0  0  0  0  0  0  0  0  0  0  0  0
   -8.6590   14.6500   29.0960 C   0  0  0  0  0  0  0  0  0  0  0  0
   -9.3890   15.5310   29.8650 C   0  0  0  0  0  0  0  0  0  0  0  0
  -10.4640   15.0730   30.5970 C   0  0  0  0  0  0  0  0  0  0  0  0
  -10.8140   13.7370   30.5520 C   0  0  0  0  0  0  0  0  0  0  0  0
   -8.7730   10.8280   31.4930 C   0  0  0  0  0  0  0  0  0  0  0  0
   -9.2850   10.3680   32.5120 O   0  0  0  0  0  0  0  0  0  0  0  0
   -7.8180   11.5950   31.6030 O   0  0  0  0  0  0  0  0  0  0  0  0
   -9.7930    1.1820   25.8590 C   0  0  1  0  0  0  0  0  0  0  0  0
  -10.4640    2.4670   25.4050 C   0  0  0  0  0  0  0  0  0  0  0  0
  -10.1350    0.0420   24.9050 C   0  0  0  0  0  0  0  0  0  0  0  0
 36 38  2  0
 36 37  1  0
 36 35  1  0
 35 29  1  0
 29 27  1  0
 29 30  1  1
 27 28  2  0
 27 26  1  0
 30 31  1  0
 31 32  1  0
 32 33  2  0
 32 34  1  0
 25 26  1  1
 25 23  1  0
 25 39  1  0
 23 24  2  0
 23 22  1  0
 39 41  1  0
 39 40  1  6
 41 42  1  0
 22 13  1  0
 13 11  1  0
 13 14  1  1
 11 12  2  0
 11 10  1  0
 14 15  1  0
 15 16  1  0
 16 17  1  0
 17 18  1  0
 18 19  1  0
 18 20  2  0
 10  9  1  0
  9 43  1  0
  9  8  1  1
 43 44  2  0
 43 45  1  0
  8  7  1  0
  7  6  1  0
  6  5  1  0
  5  3  1  0
  3  4  1  0
  3  2  2  0
 46 45  1  1
 46 47  1  0
 46 77  1  0
 47 48  2  0
 47 49  1  0
 77 78  1  6
 77 79  1  0
 49 53  1  0
 49 50  1  0
 53 54  1  6
 53 52  1  0
 54 55  2  0
 54 56  1  0
 52 51  1  0
 51 50  1  0
 56 57  1  0
 57 63  1  0
 57 58  1  1
 63 64  2  0
 63 65  1  0
 58 59  1  0
 59 60  1  0
 60 62  1  0
 60 61  2  0
 65 66  1  0
 66 74  1  0
 66 67  1  1
 74 75  2  0
 74 76  1  0
 67 68  1  0
 68 69  2  0
 68 73  1  0
 69 70  1  0
 73 72  2  0
 70 71  2  0
 72 71  1  0
 20 21  1  0
  2  1  1  0
M  END
$$$$
