
     RDKit          3D

 51 52  0  0  0  0  0  0  0  0999 V2000
   -0.5135    3.7454  -34.9094 H   0  0  0  0  0  0  0  0  0  0  0  0
   -1.1950    4.3070  -34.3990 N   0  0  0  0  0  0  0  0  0  0  0  0
   -1.5360    3.9730  -33.1620 C   0  0  0  0  0  0  0  0  0  0  0  0
   -2.4240    4.7100  -32.5060 N   0  0  0  0  0  0  0  0  0  0  0  0
   -0.9880    2.9040  -32.5870 N   0  0  0  0  0  0  0  0  0  0  0  0
   -1.2890    2.4400  -31.2320 C   0  0  0  0  0  0  0  0  0  0  0  0
   -0.3530    3.0460  -30.1940 C   0  0  0  0  0  0  0  0  0  0  0  0
   -0.6840    2.5760  -28.7800 C   0  0  0  0  0  0  0  0  0  0  0  0
    0.1640    3.2570  -27.7070 C   0  0  2  0  0  0  0  0  0  0  0  0
    1.5700    2.8860  -27.8580 N   0  0  0  0  0  0  0  0  0  0  0  0
   -0.3290    2.9030  -26.3050 C   0  0  0  0  0  0  0  0  0  0  0  0
   -0.2660    1.7510  -25.8740 O   0  0  0  0  0  0  0  0  0  0  0  0
   -0.8260    3.9110  -25.6000 N   0  0  0  0  0  0  0  0  0  0  0  0
   -1.2300    3.7800  -24.2080 C   0  0  1  0  0  0  0  0  0  0  0  0
   -0.4520    4.7900  -23.3660 C   0  0  0  0  0  0  0  0  0  0  0  0
    1.0410    4.7120  -23.6050 C   0  0  0  0  0  0  0  0  0  0  0  0
    1.6710    3.4860  -23.7680 C   0  0  0  0  0  0  0  0  0  0  0  0
    3.0310    3.4070  -23.9950 C   0  0  0  0  0  0  0  0  0  0  0  0
    3.7760    4.5610  -24.0660 C   0  0  0  0  0  0  0  0  0  0  0  0
    5.1330    4.4910  -24.2860 O   0  0  0  0  0  0  0  0  0  0  0  0
    3.1740    5.7890  -23.9110 C   0  0  0  0  0  0  0  0  0  0  0  0
    1.8130    5.8600  -23.6890 C   0  0  0  0  0  0  0  0  0  0  0  0
   -2.7250    4.0140  -24.0790 C   0  0  0  0  0  0  0  0  0  0  0  0
   -3.3000    4.8380  -24.7930 O   0  0  0  0  0  0  0  0  0  0  0  0
   -3.3470    3.2790  -23.1630 N   0  0  0  0  0  0  0  0  0  0  0  0
   -4.7760    3.4010  -22.9140 C   0  0  1  0  0  0  0  0  0  0  0  0
   -5.1410    4.7630  -22.3170 C   0  0  0  0  0  0  0  0  0  0  0  0
   -5.6030    3.1080  -24.1640 C   0  0  0  0  0  0  0  0  0  0  0  0
   -6.6740    3.6990  -24.3660 O   0  0  0  0  0  0  0  0  0  0  0  0
   -5.1220    2.1740  -24.9810 N   0  0  0  0  0  0  0  0  0  0  0  0
   -5.8490    1.6940  -26.1540 C   0  0  2  0  0  0  0  0  0  0  0  0
   -6.3930    0.3010  -25.8570 C   0  0  0  0  0  0  0  0  0  0  0  0
   -5.6420   -0.6040  -25.4630 O   0  0  0  0  0  0  0  0  0  0  0  0
   -7.6920    0.1280  -26.0690 N   0  0  0  0  0  0  0  0  0  0  0  0
   -8.3500   -1.1430  -25.7470 C   0  0  2  0  0  0  0  0  0  0  0  0
   -7.9240   -2.1970  -26.7590 C   0  0  0  0  0  0  0  0  0  0  0  0
   -7.8460   -1.9010  -27.9670 O   0  0  0  0  0  0  0  0  0  0  0  0
   -7.6430   -3.4310  -26.3360 N   0  0  0  0  0  0  0  0  0  0  0  0
   -7.3920   -3.8800  -24.9540 C   0  0  0  0  0  0  0  0  0  0  0  0
   -7.2350   -5.3730  -25.1010 C   0  0  0  0  0  0  0  0  0  0  0  0
   -6.9140   -5.6720  -26.4890 C   0  0  0  0  0  0  0  0  0  0  0  0
   -7.4250   -4.4930  -27.3230 C   0  0  1  0  0  0  0  0  0  0  0  0
   -8.7280   -4.8440  -28.0390 C   0  0  0  0  0  0  0  0  0  0  0  0
   -8.8260   -4.4080  -29.1820 O   0  0  0  0  0  0  0  0  0  0  0  0
   -9.5160   -5.5190  -27.3830 O   0  0  0  0  0  0  0  0  0  0  0  0
   -9.8640   -0.9570  -25.7720 C   0  0  1  0  0  0  0  0  0  0  0  0
  -10.5680   -2.2560  -25.4550 C   0  0  0  0  0  0  0  0  0  0  0  0
  -10.3110    0.1190  -24.7850 C   0  0  0  0  0  0  0  0  0  0  0  0
   -4.9620    1.6970  -27.4100 C   0  0  1  0  0  0  0  0  0  0  0  0
   -5.6990    1.0840  -28.5920 C   0  0  0  0  0  0  0  0  0  0  0  0
   -4.5160    3.1150  -27.7450 C   0  0  0  0  0  0  0  0  0  0  0  0
  9 10  1  1
  9 11  1  0
  9  8  1  0
 11 12  2  0
 11 13  1  0
  8  7  1  0
  7  6  1  0
  6  5  1  0
  5  3  1  0
  3  4  1  0
  3  2  2  0
 13 14  1  0
 14 23  1  0
 14 15  1  1
 23 24  2  0
 23 25  1  0
 15 16  1  0
 16 17  2  0
 16 22  1  0
 17 18  1  0
 22 21  2  0
 18 19  2  0
 21 19  1  0
 19 20  1  0
 25 26  1  0
 26 28  1  0
 26 27  1  6
 28 29  2  0
 28 30  1  0
 31 30  1  1
 31 32  1  0
 31 49  1  0
 32 33  2  0
 32 34  1  0
 49 50  1  6
 49 51  1  0
 35 34  1  6
 35 36  1  0
 35 46  1  0
 36 37  2  0
 36 38  1  0
 46 47  1  1
 46 48  1  0
 38 42  1  0
 38 39  1  0
 42 43  1  1
 42 41  1  0
 43 44  2  0
 43 45  1  0
 41 40  1  0
 40 39  1  0
  2  1  1  0
M  CHG  1  10   1
M  END
$$$$
