
     RDKit          3D

 96 98  0  0  0  0  0  0  0  0999 V2000
   -7.6338    0.6113   33.1995 H   0  0  0  0  0  0  0  0  0  0  0  0
   -7.5310   -0.4030   33.1660 N   0  0  0  0  0  0  0  0  0  0  0  0
   -6.7160   -0.9580   32.2790 C   0  0  0  0  0  0  0  0  0  0  0  0
   -6.5800   -2.2780   32.2490 N   0  0  0  0  0  0  0  0  0  0  0  0
   -6.0350   -0.1840   31.4350 N   0  0  0  0  0  0  0  0  0  0  0  0
   -5.1170   -0.6760   30.4100 C   0  0  0  0  0  0  0  0  0  0  0  0
   -5.8230   -0.7680   29.0560 C   0  0  0  0  0  0  0  0  0  0  0  0
   -4.9850   -1.4430   27.9700 C   0  0  0  0  0  0  0  0  0  0  0  0
   -5.7570   -1.6640   26.6680 C   0  0  2  0  0  0  0  0  0  0  0  0
   -4.9070   -2.2930   25.6710 N   0  0  0  0  0  0  0  0  0  0  0  0
   -5.4330   -2.9250   24.6380 C   0  0  0  0  0  0  0  0  0  0  0  0
   -6.6430   -3.1180   24.5540 O   0  0  0  0  0  0  0  0  0  0  0  0
   -4.4970   -3.4050   23.5410 C   0  0  2  0  0  0  0  0  0  0  0  0
   -5.1000   -4.5590   22.7450 C   0  0  0  0  0  0  0  0  0  0  0  0
   -4.3180   -4.8680   21.4860 C   0  0  0  0  0  0  0  0  0  0  0  0
   -4.3590   -3.7100   20.5380 C   0  0  0  0  0  0  0  0  0  0  0  0
   -5.6110   -3.6460   19.7920 N   0  0  0  0  0  0  0  0  0  0  0  0
   -6.0010   -2.6010   19.0770 C   0  0  0  0  0  0  0  0  0  0  0  0
   -5.2800   -1.4970   19.0590 N   0  0  0  0  0  0  0  0  0  0  0  0
   -7.1110   -2.6610   18.3840 N   0  0  0  0  0  0  0  0  0  0  0  0
   -7.6739   -3.5115   18.3953 H   0  0  0  0  0  0  0  0  0  0  0  0
   -3.1900   -3.7590   24.0720 N   0  0  0  0  0  0  0  0  0  0  0  0
   -2.1190   -2.9790   23.8810 C   0  0  0  0  0  0  0  0  0  0  0  0
   -2.1760   -1.9610   23.1740 O   0  0  0  0  0  0  0  0  0  0  0  0
   -0.8120   -3.3620   24.5660 C   0  0  1  0  0  0  0  0  0  0  0  0
   -1.0590   -4.1260   25.7810 N   0  0  0  0  0  0  0  0  0  0  0  0
   -1.6300   -3.5490   26.8370 C   0  0  0  0  0  0  0  0  0  0  0  0
   -2.0520   -2.3880   26.8240 O   0  0  0  0  0  0  0  0  0  0  0  0
   -1.7440   -4.4240   28.0790 C   0  0  1  0  0  0  0  0  0  0  0  0
   -1.8760   -5.8190   27.6750 N   0  0  0  0  0  0  0  0  0  0  0  0
   -0.5100   -4.2370   28.9600 C   0  0  0  0  0  0  0  0  0  0  0  0
   -0.3370   -2.8250   29.5020 C   0  0  0  0  0  0  0  0  0  0  0  0
   -1.3520   -2.4770   30.5760 C   0  0  0  0  0  0  0  0  0  0  0  0
   -1.4490   -1.2860   30.9400 O   0  0  0  0  0  0  0  0  0  0  0  0
   -2.0520   -3.3930   31.0570 O   0  0  0  0  0  0  0  0  0  0  0  0
    0.1350   -4.1530   23.6450 C   0  0  1  0  0  0  0  0  0  0  0  0
   -0.5910   -5.3470   23.0290 C   0  0  0  0  0  0  0  0  0  0  0  0
    0.7130   -3.2390   22.5660 C   0  0  0  0  0  0  0  0  0  0  0  0
    1.6640   -2.1870   23.1070 C   0  0  0  0  0  0  0  0  0  0  0  0
   -6.2430   -0.3180   26.1480 C   0  0  0  0  0  0  0  0  0  0  0  0
   -5.4560    0.4900   25.6440 O   0  0  0  0  0  0  0  0  0  0  0  0
   -7.5370   -0.0830   26.2670 N   0  0  0  0  0  0  0  0  0  0  0  0
   -8.1270    1.1880   25.8420 C   0  0  2  0  0  0  0  0  0  0  0  0
   -7.7150    2.2780   26.8240 C   0  0  0  0  0  0  0  0  0  0  0  0
   -7.7600    2.0550   28.0520 O   0  0  0  0  0  0  0  0  0  0  0  0
   -7.3290    3.4560   26.3510 N   0  0  0  0  0  0  0  0  0  0  0  0
   -7.0860    3.8270   24.9480 C   0  0  0  0  0  0  0  0  0  0  0  0
   -6.8930    5.3120   25.0030 C   0  0  0  0  0  0  0  0  0  0  0  0
   -6.4700    5.6560   26.3620 C   0  0  0  0  0  0  0  0  0  0  0  0
   -6.9570    4.5260   27.2810 C   0  0  1  0  0  0  0  0  0  0  0  0
   -8.1390    4.9620   28.1280 C   0  0  0  0  0  0  0  0  0  0  0  0
   -9.2950    4.8880   27.7100 O   0  0  0  0  0  0  0  0  0  0  0  0
   -7.8300    5.3960   29.3430 N   0  0  0  0  0  0  0  0  0  0  0  0
   -8.7810    6.0440   30.2320 C   0  0  1  0  0  0  0  0  0  0  0  0
   -8.7500    5.3930   31.6190 C   0  0  0  0  0  0  0  0  0  0  0  0
   -9.1040    3.9050   31.6350 C   0  0  0  0  0  0  0  0  0  0  0  0
   -8.9540    3.2660   33.0140 C   0  0  0  0  0  0  0  0  0  0  0  0
   -8.4190    3.9240   33.9310 O   0  0  0  0  0  0  0  0  0  0  0  0
   -9.3740    2.0990   33.1820 O   0  0  0  0  0  0  0  0  0  0  0  0
   -8.3780    7.5090   30.3500 C   0  0  0  0  0  0  0  0  0  0  0  0
   -7.1860    7.8250   30.4130 O   0  0  0  0  0  0  0  0  0  0  0  0
   -9.3610    8.4020   30.3540 N   0  0  0  0  0  0  0  0  0  0  0  0
   -9.0960    9.8320   30.4550 C   0  0  1  0  0  0  0  0  0  0  0  0
   -9.4150   10.5560   29.1430 C   0  0  0  0  0  0  0  0  0  0  0  0
   -9.3330   12.0530   29.2420 C   0  0  0  0  0  0  0  0  0  0  0  0
   -8.1310   12.7140   29.0360 C   0  0  0  0  0  0  0  0  0  0  0  0
   -8.0560   14.0950   29.1300 C   0  0  0  0  0  0  0  0  0  0  0  0
   -9.1920   14.8270   29.4330 C   0  0  0  0  0  0  0  0  0  0  0  0
  -10.3950   14.1780   29.6380 C   0  0  0  0  0  0  0  0  0  0  0  0
  -10.4610   12.8000   29.5420 C   0  0  0  0  0  0  0  0  0  0  0  0
   -9.9390   10.4150   31.5780 C   0  0  0  0  0  0  0  0  0  0  0  0
  -11.1410   10.1450   31.6540 O   0  0  0  0  0  0  0  0  0  0  0  0
   -9.3100   11.2250   32.4320 N   0  0  0  0  0  0  0  0  0  0  0  0
  -10.0100   11.8390   33.5450 C   0  0  0  0  0  0  0  0  0  0  0  0
   -9.5730   13.2530   33.8770 C   0  0  0  0  0  0  0  0  0  0  0  0
   -9.6770   13.6810   35.0310 O   0  0  0  0  0  0  0  0  0  0  0  0
   -9.0940   13.9940   32.8820 N   0  0  0  0  0  0  0  0  0  0  0  0
   -8.6320   15.3510   33.0770 C   0  0  0  0  0  0  0  0  0  0  0  0
   -9.6390   16.3910   32.6270 C   0  0  0  0  0  0  0  0  0  0  0  0
  -10.8390   16.1270   32.4990 O   0  0  0  0  0  0  0  0  0  0  0  0
   -9.1370   17.6000   32.3890 N   0  0  0  0  0  0  0  0  0  0  0  0
   -9.9640   18.7020   31.9110 C   0  0  1  0  0  0  0  0  0  0  0  0
   -9.5130   20.0200   32.5410 C   0  0  0  0  0  0  0  0  0  0  0  0
   -9.5860   20.0330   34.0520 C   0  0  0  0  0  0  0  0  0  0  0  0
  -10.6530   20.6340   34.7130 C   0  0  0  0  0  0  0  0  0  0  0  0
  -10.7240   20.6490   36.0960 C   0  0  0  0  0  0  0  0  0  0  0  0
   -9.7180   20.0540   36.8350 C   0  0  0  0  0  0  0  0  0  0  0  0
   -9.7700   20.0550   38.2080 O   0  0  0  0  0  0  0  0  0  0  0  0
   -8.6490   19.4530   36.2020 C   0  0  0  0  0  0  0  0  0  0  0  0
   -8.5900   19.4430   34.8190 C   0  0  0  0  0  0  0  0  0  0  0  0
   -9.8750   18.8000   30.3920 C   0  0  0  0  0  0  0  0  0  0  0  0
   -8.9700   18.2330   29.7790 O   0  0  0  0  0  0  0  0  0  0  0  0
  -10.7070   19.4480   29.7560 O   0  0  0  0  0  0  0  0  0  0  0  0
   -9.6550    1.0540   25.7720 C   0  0  1  0  0  0  0  0  0  0  0  0
  -10.2860    2.3600   25.3530 C   0  0  0  0  0  0  0  0  0  0  0  0
  -10.0720   -0.0730   24.8170 C   0  0  0  0  0  0  0  0  0  0  0  0
 29 30  1  6
 29 27  1  0
 29 31  1  0
 27 28  2  0
 27 26  1  0
 31 32  1  0
 32 33  1  0
 33 35  1  0
 33 34  2  0
 25 26  1  1
 25 23  1  0
 25 36  1  0
 23 24  2  0
 23 22  1  0
 36 38  1  0
 36 37  1  6
 38 39  1  0
 22 13  1  0
 13 11  1  0
 13 14  1  1
 11 12  2  0
 11 10  1  0
 14 15  1  0
 15 16  1  0
 16 17  1  0
 17 18  1  0
 18 19  1  0
 18 20  2  0
 10  9  1  0
  9 40  1  0
  9  8  1  1
 40 41  2  0
 40 42  1  0
  8  7  1  0
  7  6  1  0
  6  5  1  0
  5  3  1  0
  3  4  1  0
  3  2  2  0
 43 42  1  1
 43 44  1  0
 43 94  1  0
 44 45  2  0
 44 46  1  0
 94 95  1  6
 94 96  1  0
 46 50  1  0
 46 47  1  0
 50 51  1  6
 50 49  1  0
 51 52  2  0
 51 53  1  0
 49 48  1  0
 48 47  1  0
 53 54  1  0
 54 60  1  0
 54 55  1  1
 60 61  2  0
 60 62  1  0
 55 56  1  0
 56 57  1  0
 57 58  2  0
 57 59  1  0
 62 63  1  0
 63 71  1  0
 63 64  1  6
 71 72  2  0
 71 73  1  0
 64 65  1  0
 65 66  2  0
 65 70  1  0
 66 67  1  0
 70 69  2  0
 67 68  2  0
 69 68  1  0
 73 74  1  0
 74 75  1  0
 75 76  2  0
 75 77  1  0
 77 78  1  0
 78 79  1  0
 79 80  2  0
 79 81  1  0
 81 82  1  0
 82 91  1  0
 82 83  1  1
 91 92  2  0
 91 93  1  0
 83 84  1  0
 84 85  2  0
 84 90  1  0
 85 86  1  0
 90 89  2  0
 86 87  2  0
 89 87  1  0
 87 88  1  0
 20 21  1  0
  2  1  1  0
M  CHG  1  30   1
M  END
$$$$
