
     RDKit          3D

 96 98  0  0  0  0  0  0  0  0999 V2000
   -2.2888   -3.9356   32.1110 H   0  0  0  0  0  0  0  0  0  0  0  0
   -1.5324   -3.8977   31.1378 N   0  0  0  0  0  0  0  0  0  0  0  0
   -2.1058   -3.1993   30.1906 C   0  0  0  0  0  0  0  0  0  0  0  0
   -1.9799   -1.8499   30.2521 N   0  0  0  0  0  0  0  0  0  0  0  0
   -2.7374   -3.7999   29.1995 N   0  0  0  0  0  0  0  0  0  0  0  0
   -2.1399   -4.6231   28.1812 C   0  0  0  0  0  0  0  0  0  0  0  0
   -1.7212   -3.7135   26.9581 C   0  0  0  0  0  0  0  0  0  0  0  0
   -1.5860   -4.5226   25.6346 C   0  0  0  0  0  0  0  0  0  0  0  0
   -0.8654   -3.8045   24.5552 C   0  0  2  0  0  0  0  0  0  0  0  0
   -0.4067   -2.4598   25.0803 N   0  0  0  0  0  0  0  0  0  0  0  0
   -0.6275   -2.0925   26.3121 C   0  0  0  0  0  0  0  0  0  0  0  0
   -0.5640   -2.9170   27.2556 O   0  0  0  0  0  0  0  0  0  0  0  0
   -0.7709   -0.6193   26.6193 C   0  0  1  0  0  0  0  0  0  0  0  0
   -1.7257   -0.3269   27.7704 C   0  0  0  0  0  0  0  0  0  0  0  0
   -1.2120   -0.8148   29.1137 C   0  0  0  0  0  0  0  0  0  0  0  0
   -0.2235    0.2473   29.7128 C   0  0  0  0  0  0  0  0  0  0  0  0
   -0.7249    0.6006   31.0535 N   0  0  0  0  0  0  0  0  0  0  0  0
   -1.9089    0.3311   31.5945 C   0  0  0  0  0  0  0  0  0  0  0  0
   -2.8143   -0.2652   30.8227 N   0  0  0  0  0  0  0  0  0  0  0  0
   -2.1576    0.6729   32.7798 N   0  0  0  0  0  0  0  0  0  0  0  0
   -2.6260    1.7780   32.7432 H   0  0  0  0  0  0  0  0  0  0  0  0
    0.5313   -0.0144   26.8847 N   0  0  0  0  0  0  0  0  0  0  0  0
    0.7737    1.2977   26.7550 C   0  0  0  0  0  0  0  0  0  0  0  0
    0.7623    1.8506   25.6546 O   0  0  0  0  0  0  0  0  0  0  0  0
    1.3027    2.0662   27.9803 C   0  0  1  0  0  0  0  0  0  0  0  0
    2.6318    1.6100   28.3176 N   0  0  0  0  0  0  0  0  0  0  0  0
    3.6405    1.6167   27.4474 C   0  0  0  0  0  0  0  0  0  0  0  0
    3.8013    2.5649   26.6538 O   0  0  0  0  0  0  0  0  0  0  0  0
    4.7712    0.6519   27.6278 C   0  0  2  0  0  0  0  0  0  0  0  0
    6.0490    1.3084   27.5506 N   0  0  0  0  0  0  0  0  0  0  0  0
    4.6793   -0.4847   26.6012 C   0  0  0  0  0  0  0  0  0  0  0  0
    5.4021   -1.7635   27.0184 C   0  0  0  0  0  0  0  0  0  0  0  0
    6.0314   -2.4673   25.8637 C   0  0  0  0  0  0  0  0  0  0  0  0
    6.8510   -3.4154   26.0822 O   0  0  0  0  0  0  0  0  0  0  0  0
    5.5921   -2.3033   24.7069 O   0  0  0  0  0  0  0  0  0  0  0  0
    1.3164    3.5772   27.7346 C   0  0  2  0  0  0  0  0  0  0  0  0
    1.8625    4.2651   28.9856 C   0  0  0  0  0  0  0  0  0  0  0  0
   -0.0716    4.0722   27.4125 C   0  0  0  0  0  0  0  0  0  0  0  0
   -0.2112    5.5939   27.4594 C   0  0  0  0  0  0  0  0  0  0  0  0
   -1.7371   -3.5592   23.3610 C   0  0  0  0  0  0  0  0  0  0  0  0
   -1.8556   -2.4651   22.8357 O   0  0  0  0  0  0  0  0  0  0  0  0
   -2.1010   -4.6734   22.7586 N   0  0  0  0  0  0  0  0  0  0  0  0
   -1.2277   -5.3997   21.8696 C   0  0  2  0  0  0  0  0  0  0  0  0
    0.0204   -4.5552   21.6214 C   0  0  0  0  0  0  0  0  0  0  0  0
    1.1074   -4.8872   22.1954 O   0  0  0  0  0  0  0  0  0  0  0  0
   -0.1371   -3.2847   21.2245 N   0  0  0  0  0  0  0  0  0  0  0  0
    0.7136   -2.1260   21.4960 C   0  0  0  0  0  0  0  0  0  0  0  0
   -0.1320   -0.9272   21.4024 C   0  0  0  0  0  0  0  0  0  0  0  0
   -1.5040   -1.3954   21.1704 C   0  0  0  0  0  0  0  0  0  0  0  0
   -1.4811   -2.8427   20.8109 C   0  0  2  0  0  0  0  0  0  0  0  0
   -2.5945   -3.6743   21.4482 C   0  0  0  0  0  0  0  0  0  0  0  0
   -2.8384   -4.8021   21.0779 O   0  0  0  0  0  0  0  0  0  0  0  0
   -3.0024   -3.1984   22.6439 N   0  0  0  0  0  0  0  0  0  0  0  0
   -3.0575   -1.7650   22.9316 C   0  0  2  0  0  0  0  0  0  0  0  0
   -4.3644   -1.4564   23.6951 C   0  0  0  0  0  0  0  0  0  0  0  0
   -4.1397   -0.8576   25.0955 C   0  0  0  0  0  0  0  0  0  0  0  0
   -2.7070   -0.3601   25.3415 C   0  0  0  0  0  0  0  0  0  0  0  0
   -2.0385    0.0435   24.3761 O   0  0  0  0  0  0  0  0  0  0  0  0
   -2.2302   -0.3567   26.5063 O   0  0  0  0  0  0  0  0  0  0  0  0
   -3.1106   -0.9971   21.6102 C   0  0  0  0  0  0  0  0  0  0  0  0
   -2.6722   -1.5916   20.5714 O   0  0  0  0  0  0  0  0  0  0  0  0
   -3.8193    0.1018   21.5737 N   0  0  0  0  0  0  0  0  0  0  0  0
   -5.2601    0.1154   21.6820 C   0  0  2  0  0  0  0  0  0  0  0  0
   -5.9184    1.0384   20.6494 C   0  0  0  0  0  0  0  0  0  0  0  0
   -7.2617    0.5290   20.1116 C   0  0  0  0  0  0  0  0  0  0  0  0
   -8.3338    1.3957   19.9535 C   0  0  0  0  0  0  0  0  0  0  0  0
   -9.6011    0.8941   19.8797 C   0  0  0  0  0  0  0  0  0  0  0  0
   -9.8220   -0.4555   19.8473 C   0  0  0  0  0  0  0  0  0  0  0  0
   -8.7532   -1.3605   19.8907 C   0  0  0  0  0  0  0  0  0  0  0  0
   -7.4784   -0.8459   20.0112 C   0  0  0  0  0  0  0  0  0  0  0  0
   -5.6684    0.5275   23.0675 C   0  0  0  0  0  0  0  0  0  0  0  0
   -6.6735    1.3513   23.2044 O   0  0  0  0  0  0  0  0  0  0  0  0
   -4.8541    0.2432   24.0836 N   0  0  0  0  0  0  0  0  0  0  0  0
   -5.1639    0.5251   25.4428 C   0  0  0  0  0  0  0  0  0  0  0  0
   -5.2047   -0.5717   26.4177 C   0  0  0  0  0  0  0  0  0  0  0  0
   -6.0872   -1.4828   26.3333 O   0  0  0  0  0  0  0  0  0  0  0  0
   -4.3965   -0.5281   27.4644 N   0  0  0  0  0  0  0  0  0  0  0  0
   -4.5911   -1.3488   28.6556 C   0  0  0  0  0  0  0  0  0  0  0  0
   -3.3095   -1.9446   29.1952 C   0  0  0  0  0  0  0  0  0  0  0  0
   -2.2217   -1.6439   28.7300 O   0  0  0  0  0  0  0  0  0  0  0  0
   -3.4704   -3.0283   29.9706 N   0  0  0  0  0  0  0  0  0  0  0  0
   -3.6023   -2.9541   31.4202 C   0  0  2  0  0  0  0  0  0  0  0  0
   -4.6493   -1.8632   31.7920 C   0  0  0  0  0  0  0  0  0  0  0  0
   -4.1277   -0.7122   32.6203 C   0  0  0  0  0  0  0  0  0  0  0  0
   -3.2412   -0.9336   33.6845 C   0  0  0  0  0  0  0  0  0  0  0  0
   -3.2440   -0.1520   34.8267 C   0  0  0  0  0  0  0  0  0  0  0  0
   -4.1086    0.8983   34.9049 C   0  0  0  0  0  0  0  0  0  0  0  0
   -4.5383    1.3757   36.0852 O   0  0  0  0  0  0  0  0  0  0  0  0
   -4.7821    1.2749   33.7458 C   0  0  0  0  0  0  0  0  0  0  0  0
   -4.7583    0.4826   32.5903 C   0  0  0  0  0  0  0  0  0  0  0  0
   -2.2559   -2.5690   32.0512 C   0  0  0  0  0  0  0  0  0  0  0  0
   -1.4339   -1.9236   31.3759 O   0  0  0  0  0  0  0  0  0  0  0  0
   -1.8800   -3.1305   33.0659 O   0  0  0  0  0  0  0  0  0  0  0  0
   -1.9290   -5.6978   20.5159 C   0  0  2  0  0  0  0  0  0  0  0  0
   -3.0844   -6.6332   20.6617 C   0  0  0  0  0  0  0  0  0  0  0  0
   -0.9342   -6.1693   19.4406 C   0  0  0  0  0  0  0  0  0  0  0  0
 29 30  1  1
 29 27  1  0
 29 31  1  0
 27 28  2  0
 27 26  1  0
 31 32  1  0
 32 33  1  0
 33 35  1  0
 33 34  2  0
 25 26  1  6
 25 23  1  0
 25 36  1  0
 23 24  2  0
 23 22  1  0
 36 38  1  0
 36 37  1  6
 38 39  1  0
 22 13  1  0
 13 11  1  0
 13 14  1  6
 11 12  2  0
 11 10  1  0
 14 15  1  0
 15 16  1  0
 16 17  1  0
 17 18  1  0
 18 19  1  0
 18 20  2  0
 10  9  1  0
  9 40  1  0
  9  8  1  1
 40 41  2  0
 40 42  1  0
  8  7  1  0
  7  6  1  0
  6  5  1  0
  5  3  1  0
  3  4  1  0
  3  2  2  0
 43 42  1  1
 43 44  1  0
 43 94  1  0
 44 45  2  0
 44 46  1  0
 94 95  1  6
 94 96  1  0
 46 50  1  0
 46 47  1  0
 50 51  1  6
 50 49  1  0
 51 52  2  0
 51 53  1  0
 49 48  1  0
 48 47  1  0
 53 54  1  0
 54 60  1  0
 54 55  1  6
 60 61  2  0
 60 62  1  0
 55 56  1  0
 56 57  1  0
 57 58  2  0
 57 59  1  0
 62 63  1  0
 63 71  1  0
 63 64  1  1
 71 72  2  0
 71 73  1  0
 64 65  1  0
 65 66  4  0
 65 70  4  0
 66 67  4  0
 70 69  4  0
 67 68  4  0
 69 68  4  0
 73 74  1  0
 74 75  1  0
 75 76  2  0
 75 77  1  0
 77 78  1  0
 78 79  1  0
 79 80  2  0
 79 81  1  0
 81 82  1  0
 82 91  1  0
 82 83  1  1
 91 92  2  0
 91 93  1  0
 83 84  1  0
 84 85  4  0
 84 90  4  0
 85 86  4  0
 90 89  4  0
 86 87  4  0
 89 87  4  0
 87 88  1  0
 20 21  1  0
  2  1  1  0
M  CHG  1  30   1
M  END
$$$$
