
     RDKit          3D

 59 60  0  0  0  0  0  0  0  0999 V2000
   -3.3723    3.8421  -31.7177 H   0  0  0  0  0  0  0  0  0  0  0  0
   -3.7310    2.9180  -31.9580 N   0  0  0  0  0  0  0  0  0  0  0  0
   -3.0590    1.8330  -31.6010 C   0  0  0  0  0  0  0  0  0  0  0  0
   -3.5320    0.6350  -31.9130 N   0  0  0  0  0  0  0  0  0  0  0  0
   -1.9160    1.9450  -30.9290 N   0  0  0  0  0  0  0  0  0  0  0  0
   -1.3130    3.2180  -30.5440 C   0  0  0  0  0  0  0  0  0  0  0  0
   -0.0660    3.0480  -29.6870 C   0  0  0  0  0  0  0  0  0  0  0  0
   -0.4080    2.5100  -28.3100 C   0  0  0  0  0  0  0  0  0  0  0  0
    0.5530    2.9720  -27.2150 C   0  0  2  0  0  0  0  0  0  0  0  0
    1.8390    2.3000  -27.3390 N   0  0  0  0  0  0  0  0  0  0  0  0
   -0.0670    2.7260  -25.8450 C   0  0  0  0  0  0  0  0  0  0  0  0
   -0.1110    1.5980  -25.3600 O   0  0  0  0  0  0  0  0  0  0  0  0
   -0.5520    3.7980  -25.2330 N   0  0  0  0  0  0  0  0  0  0  0  0
   -1.0720    3.7670  -23.8750 C   0  0  1  0  0  0  0  0  0  0  0  0
   -0.3730    4.8340  -23.0300 C   0  0  0  0  0  0  0  0  0  0  0  0
    1.0860    4.5330  -22.7840 C   0  0  0  0  0  0  0  0  0  0  0  0
    1.4580    3.5380  -21.8930 C   0  0  0  0  0  0  0  0  0  0  0  0
    2.7790    3.2480  -21.6590 C   0  0  0  0  0  0  0  0  0  0  0  0
    3.7530    3.9530  -22.3270 C   0  0  0  0  0  0  0  0  0  0  0  0
    5.0760    3.6660  -22.0950 O   0  0  0  0  0  0  0  0  0  0  0  0
    3.4120    4.9470  -23.2180 C   0  0  0  0  0  0  0  0  0  0  0  0
    2.0840    5.2310  -23.4440 C   0  0  0  0  0  0  0  0  0  0  0  0
   -2.5720    4.0030  -23.8790 C   0  0  0  0  0  0  0  0  0  0  0  0
   -3.0880    4.7980  -24.6690 O   0  0  0  0  0  0  0  0  0  0  0  0
   -3.2600    3.2890  -22.9950 N   0  0  0  0  0  0  0  0  0  0  0  0
   -4.6950    3.4470  -22.8060 C   0  0  1  0  0  0  0  0  0  0  0  0
   -5.0540    4.8300  -22.2560 C   0  0  0  0  0  0  0  0  0  0  0  0
   -5.4770    3.1350  -24.0730 C   0  0  0  0  0  0  0  0  0  0  0  0
   -6.5330    3.7220  -24.3190 O   0  0  0  0  0  0  0  0  0  0  0  0
   -4.9770    2.2090  -24.8810 N   0  0  0  0  0  0  0  0  0  0  0  0
   -5.6670    1.7450  -26.0760 C   0  0  2  0  0  0  0  0  0  0  0  0
   -6.2220    0.3550  -25.7910 C   0  0  0  0  0  0  0  0  0  0  0  0
   -5.4850   -0.5430  -25.3690 O   0  0  0  0  0  0  0  0  0  0  0  0
   -7.5190    0.1890  -25.9980 N   0  0  0  0  0  0  0  0  0  0  0  0
   -8.1850   -1.0820  -25.6920 C   0  0  2  0  0  0  0  0  0  0  0  0
   -7.7360   -2.1360  -26.6900 C   0  0  0  0  0  0  0  0  0  0  0  0
   -7.6490   -1.8450  -27.8940 O   0  0  0  0  0  0  0  0  0  0  0  0
   -7.4410   -3.3570  -26.2540 N   0  0  0  0  0  0  0  0  0  0  0  0
   -7.3290   -3.7970  -24.8540 C   0  0  0  0  0  0  0  0  0  0  0  0
   -6.7860   -5.1910  -24.9630 C   0  0  0  0  0  0  0  0  0  0  0  0
   -7.0060   -5.6720  -26.3390 C   0  0  0  0  0  0  0  0  0  0  0  0
   -7.1560   -4.4280  -27.2200 C   0  0  1  0  0  0  0  0  0  0  0  0
   -8.3110   -4.5870  -28.2000 C   0  0  0  0  0  0  0  0  0  0  0  0
   -9.4810   -4.4370  -27.8390 O   0  0  0  0  0  0  0  0  0  0  0  0
   -7.9830   -4.8980  -29.4470 N   0  0  0  0  0  0  0  0  0  0  0  0
   -9.0180   -5.1260  -30.4560 C   0  0  1  0  0  0  0  0  0  0  0  0
   -8.4090   -5.6220  -31.7670 C   0  0  0  0  0  0  0  0  0  0  0  0
   -7.2540   -4.7640  -32.2330 C   0  0  0  0  0  0  0  0  0  0  0  0
   -7.4600   -3.9190  -33.1280 O   0  0  0  0  0  0  0  0  0  0  0  0
   -6.1370   -4.9350  -31.7000 O   0  0  0  0  0  0  0  0  0  0  0  0
  -10.0400   -6.1460  -29.9510 C   0  0  0  0  0  0  0  0  0  0  0  0
   -9.8110   -7.3570  -30.0100 O   0  0  0  0  0  0  0  0  0  0  0  0
  -11.1180   -5.7820  -29.4730 O   0  0  0  0  0  0  0  0  0  0  0  0
   -9.7030   -0.8890  -25.7320 C   0  0  1  0  0  0  0  0  0  0  0  0
  -10.4230   -2.1920  -25.4630 C   0  0  0  0  0  0  0  0  0  0  0  0
  -10.1440    0.1620  -24.7140 C   0  0  0  0  0  0  0  0  0  0  0  0
   -4.7440    1.7490  -27.3000 C   0  0  1  0  0  0  0  0  0  0  0  0
   -5.4600    1.1450  -28.4880 C   0  0  0  0  0  0  0  0  0  0  0  0
   -4.3030    3.1600  -27.6140 C   0  0  0  0  0  0  0  0  0  0  0  0
  9 10  1  1
  9 11  1  0
  9  8  1  0
 11 12  2  0
 11 13  1  0
  8  7  1  0
  7  6  1  0
  6  5  1  0
  5  3  1  0
  3  2  2  0
  3  4  1  0
 13 14  1  0
 14 23  1  0
 14 15  1  1
 23 24  2  0
 23 25  1  0
 15 16  1  0
 16 17  2  0
 16 22  1  0
 17 18  1  0
 22 21  2  0
 18 19  2  0
 21 19  1  0
 19 20  1  0
 25 26  1  0
 26 28  1  0
 26 27  1  6
 28 29  2  0
 28 30  1  0
 31 30  1  1
 31 32  1  0
 31 57  1  0
 32 33  2  0
 32 34  1  0
 57 58  1  6
 57 59  1  0
 35 34  1  6
 35 36  1  0
 35 54  1  0
 36 37  2  0
 36 38  1  0
 54 55  1  1
 54 56  1  0
 38 42  1  0
 38 39  1  0
 42 43  1  6
 42 41  1  0
 43 44  2  0
 43 45  1  0
 41 40  1  0
 40 39  1  0
 45 46  1  0
 46 51  1  0
 46 47  1  6
 51 52  2  0
 51 53  1  0
 47 48  1  0
 48 50  1  0
 48 49  2  0
  2  1  1  0
M  CHG  1  10   1
M  END
$$$$
