
     RDKit          3D

 59 60  0  0  0  0  0  0  0  0999 V2000
    0.3505   -1.0675  -26.4779 H   0  0  0  0  0  0  0  0  0  0  0  0
    0.1683   -0.0201  -26.9944 N   0  0  0  0  0  0  0  0  0  0  0  0
    0.4623   -0.1834  -28.3032 C   0  0  0  0  0  0  0  0  0  0  0  0
    1.7526   -0.1682  -28.6721 N   0  0  0  0  0  0  0  0  0  0  0  0
   -0.4398   -0.3207  -29.2211 N   0  0  0  0  0  0  0  0  0  0  0  0
   -0.2997   -0.0854  -30.6266 C   0  0  0  0  0  0  0  0  0  0  0  0
   -1.4393    0.5717  -31.2877 C   0  0  0  0  0  0  0  0  0  0  0  0
   -2.1149    1.5528  -30.2988 C   0  0  0  0  0  0  0  0  0  0  0  0
   -1.1710    2.5878  -29.6608 C   0  0  1  0  0  0  0  0  0  0  0  0
   -1.3045    3.8403  -30.3344 N   0  0  0  0  0  0  0  0  0  0  0  0
   -1.4643    2.6787  -28.1994 C   0  0  0  0  0  0  0  0  0  0  0  0
   -1.4403    3.7959  -27.6239 O   0  0  0  0  0  0  0  0  0  0  0  0
   -1.9806    1.6110  -27.5903 N   0  0  0  0  0  0  0  0  0  0  0  0
   -2.3567    1.6081  -26.2057 C   0  0  2  0  0  0  0  0  0  0  0  0
   -3.5747    0.7013  -26.0377 C   0  0  0  0  0  0  0  0  0  0  0  0
   -4.0148   -0.0172  -27.2919 C   0  0  0  0  0  0  0  0  0  0  0  0
   -3.2747    0.2325  -28.4285 C   0  0  0  0  0  0  0  0  0  0  0  0
   -3.1392   -0.7978  -29.3813 C   0  0  0  0  0  0  0  0  0  0  0  0
   -3.7252   -2.0194  -29.1582 C   0  0  0  0  0  0  0  0  0  0  0  0
   -3.1821   -3.1316  -29.7059 O   0  0  0  0  0  0  0  0  0  0  0  0
   -4.6934   -2.1262  -28.1584 C   0  0  0  0  0  0  0  0  0  0  0  0
   -4.8211   -1.1107  -27.2572 C   0  0  0  0  0  0  0  0  0  0  0  0
   -2.7143    3.0037  -25.7436 C   0  0  0  0  0  0  0  0  0  0  0  0
   -3.8526    3.4720  -26.0178 O   0  0  0  0  0  0  0  0  0  0  0  0
   -1.6934    3.7853  -25.5040 N   0  0  0  0  0  0  0  0  0  0  0  0
   -1.8138    5.2122  -25.2541 C   0  0  2  0  0  0  0  0  0  0  0  0
   -1.2047    5.5949  -23.8863 C   0  0  0  0  0  0  0  0  0  0  0  0
   -3.2774    5.6625  -25.3262 C   0  0  0  0  0  0  0  0  0  0  0  0
   -3.8087    5.8184  -26.4050 O   0  0  0  0  0  0  0  0  0  0  0  0
   -3.8375    6.1393  -24.1901 N   0  0  0  0  0  0  0  0  0  0  0  0
   -3.9876    5.3476  -22.9734 C   0  0  1  0  0  0  0  0  0  0  0  0
   -4.2854    3.9157  -23.3543 C   0  0  0  0  0  0  0  0  0  0  0  0
   -4.5184    3.6426  -24.5973 O   0  0  0  0  0  0  0  0  0  0  0  0
   -3.9557    2.9817  -22.4980 N   0  0  0  0  0  0  0  0  0  0  0  0
   -2.6119    2.8671  -21.9231 C   0  0  1  0  0  0  0  0  0  0  0  0
   -1.6211    3.4131  -22.9276 C   0  0  0  0  0  0  0  0  0  0  0  0
   -1.4382    4.6315  -23.0084 O   0  0  0  0  0  0  0  0  0  0  0  0
   -1.1371    2.5946  -23.8791 N   0  0  0  0  0  0  0  0  0  0  0  0
    0.1217    2.7434  -24.6211 C   0  0  0  0  0  0  0  0  0  0  0  0
    0.2350    1.3989  -25.3112 C   0  0  0  0  0  0  0  0  0  0  0  0
   -1.0216    0.7519  -25.3081 C   0  0  0  0  0  0  0  0  0  0  0  0
   -1.8284    1.3534  -24.1681 C   0  0  2  0  0  0  0  0  0  0  0  0
   -3.2713    1.5892  -24.5543 C   0  0  0  0  0  0  0  0  0  0  0  0
   -3.5182    2.0274  -25.7482 O   0  0  0  0  0  0  0  0  0  0  0  0
   -4.2191    1.0326  -23.8417 N   0  0  0  0  0  0  0  0  0  0  0  0
   -5.3313    0.3043  -24.4684 C   0  0  2  0  0  0  0  0  0  0  0  0
   -5.7517   -0.9064  -23.6351 C   0  0  0  0  0  0  0  0  0  0  0  0
   -6.3461   -2.0091  -24.4939 C   0  0  0  0  0  0  0  0  0  0  0  0
   -5.7811   -3.0873  -24.5991 O   0  0  0  0  0  0  0  0  0  0  0  0
   -7.3398   -1.6812  -25.1715 O   0  0  0  0  0  0  0  0  0  0  0  0
   -4.9830   -0.1632  -25.8823 C   0  0  0  0  0  0  0  0  0  0  0  0
   -4.3736   -1.2149  -26.0794 O   0  0  0  0  0  0  0  0  0  0  0  0
   -5.5099    0.3699  -26.8438 O   0  0  0  0  0  0  0  0  0  0  0  0
   -2.5701    3.6286  -20.5984 C   0  0  2  0  0  0  0  0  0  0  0  0
   -3.3126    2.9492  -19.5316 C   0  0  0  0  0  0  0  0  0  0  0  0
   -3.0777    5.0780  -20.7824 C   0  0  0  0  0  0  0  0  0  0  0  0
   -2.7362    5.4645  -22.1397 C   0  0  2  0  0  0  0  0  0  0  0  0
   -1.7572    6.4675  -22.6626 C   0  0  0  0  0  0  0  0  0  0  0  0
   -2.0881    4.1407  -21.9707 C   0  0  0  0  0  0  0  0  0  0  0  0
  9 10  1  1
  9 11  1  0
  9  8  1  0
 11 12  2  0
 11 13  1  0
  8  7  1  0
  7  6  1  0
  6  5  1  0
  5  3  1  0
  3  2  2  0
  3  4  1  0
 13 14  1  0
 14 23  1  0
 14 15  1  1
 23 24  2  0
 23 25  1  0
 15 16  1  0
 16 17  4  0
 16 22  4  0
 17 18  4  0
 22 21  4  0
 18 19  4  0
 21 19  4  0
 19 20  1  0
 25 26  1  0
 26 28  1  0
 26 27  1  6
 28 29  2  0
 28 30  1  0
 31 30  1  1
 31 32  1  0
 31 57  1  0
 32 33  2  0
 32 34  1  0
 57 58  1  1
 57 59  1  0
 35 34  1  1
 35 36  1  0
 35 54  1  0
 36 37  2  0
 36 38  1  0
 54 55  1  6
 54 56  1  0
 38 42  1  0
 38 39  1  0
 42 43  1  1
 42 41  1  0
 43 44  2  0
 43 45  1  0
 41 40  1  0
 40 39  1  0
 45 46  1  0
 46 51  1  0
 46 47  1  6
 51 52  2  0
 51 53  1  0
 47 48  1  0
 48 50  1  0
 48 49  2  0
  2  1  1  0
M  CHG  1  10   1
M  END
$$$$
