
     RDKit          3D

 55 55  0  0  0  0  0  0  0  0999 V2000
   -8.7943   -0.3390   19.9858 C   0  0  0  0  0  0  0  0  0  0  0  0
   -7.5229   -1.5456   20.2283 S   0  0  0  0  0  0  0  0  0  0  0  0
   -6.5890   -0.8112   21.4808 C   0  0  0  0  0  0  0  0  0  0  0  0
   -5.1241   -0.5942   21.1456 C   0  0  0  0  0  0  0  0  0  0  0  0
   -4.1368   -1.2271   22.0828 C   0  0  1  0  0  0  0  0  0  0  0  0
   -4.2560   -0.6511   23.4453 N   0  0  0  0  0  0  0  0  0  0  0  0
   -4.0823   -1.3683   24.5483 C   0  0  0  0  0  0  0  0  0  0  0  0
   -4.3888   -2.5788   24.5772 O   0  0  0  0  0  0  0  0  0  0  0  0
   -3.2042   -0.7376   25.6214 C   0  0  1  0  0  0  0  0  0  0  0  0
   -2.5424   -1.8328   26.5264 C   0  0  0  0  0  0  0  0  0  0  0  0
   -3.0294   -3.2501   26.1706 C   0  0  0  0  0  0  0  0  0  0  0  0
   -1.8594   -4.2141   26.0516 C   0  0  0  0  0  0  0  0  0  0  0  0
   -0.8475   -3.7449   25.2977 N   0  0  0  0  0  0  0  0  0  0  0  0
   -1.9922   -5.4218   26.3617 O   0  0  0  0  0  0  0  0  0  0  0  0
   -2.2514    0.1519   25.0610 N   0  0  0  0  0  0  0  0  0  0  0  0
   -2.0157    1.3746   25.4758 C   0  0  0  0  0  0  0  0  0  0  0  0
   -1.4176    2.2365   24.8450 O   0  0  0  0  0  0  0  0  0  0  0  0
   -2.8715    1.7740   26.6746 C   0  0  1  0  0  0  0  0  0  0  0  0
   -4.3552    1.7187   26.3039 C   0  0  0  0  0  0  0  0  0  0  0  0
   -5.2768    1.8195   27.4750 C   0  0  0  0  0  0  0  0  0  0  0  0
   -5.7801    2.9011   27.7372 O   0  0  0  0  0  0  0  0  0  0  0  0
   -5.7209    0.7399   27.9720 O   0  0  0  0  0  0  0  0  0  0  0  0
   -2.6336    0.8964   27.8196 N   0  0  0  0  0  0  0  0  0  0  0  0
   -3.6142    0.4437   28.6014 C   0  0  0  0  0  0  0  0  0  0  0  0
   -4.2357   -0.5938   28.2904 O   0  0  0  0  0  0  0  0  0  0  0  0
   -3.6733    0.9871   30.0408 C   0  0  2  0  0  0  0  0  0  0  0  0
   -2.9526    2.1887   30.1517 N   0  0  0  0  0  0  0  0  0  0  0  0
   -3.0801   -0.0872   30.9843 C   0  0  0  0  0  0  0  0  0  0  0  0
   -3.5351    0.1172   32.4676 C   0  0  0  0  0  0  0  0  0  0  0  0
   -3.3744    1.5789   32.8630 C   0  0  0  0  0  0  0  0  0  0  0  0
   -3.3935    2.4573   31.9523 O   0  0  0  0  0  0  0  0  0  0  0  0
   -3.4108    1.8608   34.0943 O   0  0  0  0  0  0  0  0  0  0  0  0
   -4.4119   -2.7463   22.1999 C   0  0  0  0  0  0  0  0  0  0  0  0
   -5.3739   -3.2000   21.5628 O   0  0  0  0  0  0  0  0  0  0  0  0
   -3.8602   -3.3904   23.2451 N   0  0  0  0  0  0  0  0  0  0  0  0
   -2.3721   -3.2533   23.4358 C   0  0  1  0  0  0  0  0  0  0  0  0
   -1.7754   -4.6672   23.4129 C   0  0  0  0  0  0  0  0  0  0  0  0
   -2.5329   -5.6375   23.4478 O   0  0  0  0  0  0  0  0  0  0  0  0
   -0.4447   -4.7798   23.3537 N   0  0  0  0  0  0  0  0  0  0  0  0
    0.5421   -3.7175   23.1567 C   0  0  0  0  0  0  0  0  0  0  0  0
    1.8290   -4.3936   23.5367 C   0  0  0  0  0  0  0  0  0  0  0  0
    1.6307   -5.8170   23.5693 C   0  0  0  0  0  0  0  0  0  0  0  0
    0.1445   -6.1139   23.5793 C   0  0  1  0  0  0  0  0  0  0  0  0
   -0.3390   -6.7233   24.8564 C   0  0  0  0  0  0  0  0  0  0  0  0
   -0.2221   -6.1339   25.9529 O   0  0  0  0  0  0  0  0  0  0  0  0
   -1.1687   -7.7588   24.7141 N   0  0  0  0  0  0  0  0  0  0  0  0
   -1.4714   -8.6933   25.8475 C   0  0  1  0  0  0  0  0  0  0  0  0
   -2.6321   -9.6114   25.3658 C   0  0  0  0  0  0  0  0  0  0  0  0
   -3.8728   -9.0179   25.6207 O   0  0  0  0  0  0  0  0  0  0  0  0
   -0.2368   -9.5256   26.1808 C   0  0  0  0  0  0  0  0  0  0  0  0
   -0.3280  -10.7490   26.1856 O   0  0  0  0  0  0  0  0  0  0  0  0
    0.8648   -9.0211   26.2041 O   0  0  0  0  0  0  0  0  0  0  0  0
   -1.7880   -2.3696   22.3525 C   0  0  2  0  0  0  0  0  0  0  0  0
   -1.4353   -3.1670   21.0923 C   0  0  0  0  0  0  0  0  0  0  0  0
   -0.5547   -1.7061   22.8996 C   0  0  0  0  0  0  0  0  0  0  0  0
 26 27  1  1
 26 24  1  0
 26 28  1  0
 24 25  2  0
 24 23  1  0
 28 29  1  0
 29 30  1  0
 30 31  2  0
 30 32  1  0
 23 18  1  0
 18 16  1  0
 18 19  1  1
 16 17  2  0
 16 15  1  0
 19 20  1  0
 20 22  1  0
 20 21  2  0
 15  9  1  0
  9  7  1  0
  9 10  1  1
  7  8  2  0
  7  6  1  0
 10 11  1  0
 11 12  1  0
 12 14  2  0
 12 13  1  0
  6  5  1  0
  5 33  1  0
  5  4  1  1
 33 34  2  0
 33 35  1  0
  4  3  1  0
  3  2  1  0
  2  1  1  0
 36 35  1  1
 36 37  1  0
 36 53  1  0
 37 38  2  0
 37 39  1  0
 53 54  1  1
 53 55  1  0
 39 43  1  0
 39 40  1  0
 43 44  1  1
 43 42  1  0
 44 45  2  0
 44 46  1  0
 42 41  1  0
 41 40  1  0
 46 47  1  0
 47 50  1  0
 47 48  1  6
 50 52  1  0
 50 51  2  0
 48 49  1  0
M  CHG  1  27   1
M  END
$$$$
