
     RDKit          3D

 58 60  0  0  0  0  0  0  0  0999 V2000
    0.7809   -5.3083   25.8779 C   0  0  0  0  0  0  0  0  0  0  0  0
   -0.0563   -6.1676   24.9242 C   0  0  2  0  0  0  0  0  0  0  0  0
    0.2759   -5.8896   23.4802 C   0  0  0  0  0  0  0  0  0  0  0  0
   -1.5287   -6.0345   25.1656 C   0  0  1  0  0  0  0  0  0  0  0  0
   -1.8987   -6.2161   26.5679 N   0  0  0  0  0  0  0  0  0  0  0  0
   -2.2755   -5.2134   27.3765 C   0  0  0  0  0  0  0  0  0  0  0  0
   -3.2219   -5.3756   28.2007 O   0  0  0  0  0  0  0  0  0  0  0  0
   -1.7654   -3.8510   27.0693 C   0  0  0  0  0  0  0  0  0  0  0  0
   -2.7311   -2.8004   27.0405 N   0  0  0  0  0  0  0  0  0  0  0  0
   -3.6223   -2.7014   28.0624 C   0  0  0  0  0  0  0  0  0  0  0  0
   -4.1801   -3.6789   28.5300 O   0  0  0  0  0  0  0  0  0  0  0  0
   -3.5718   -1.3852   28.8503 C   0  0  1  0  0  0  0  0  0  0  0  0
   -4.7221   -1.3245   29.8663 C   0  0  0  0  0  0  0  0  0  0  0  0
   -4.2982   -1.5547   31.3133 C   0  0  0  0  0  0  0  0  0  0  0  0
   -4.1302   -2.7749   31.8890 C   0  0  0  0  0  0  0  0  0  0  0  0
   -4.1791   -2.9704   33.2794 C   0  0  0  0  0  0  0  0  0  0  0  0
   -4.1920   -1.8869   34.0772 C   0  0  0  0  0  0  0  0  0  0  0  0
   -4.1919   -0.6052   33.5143 C   0  0  0  0  0  0  0  0  0  0  0  0
   -4.1306   -0.4645   32.1516 C   0  0  0  0  0  0  0  0  0  0  0  0
   -2.3081   -1.2537   29.5144 N   0  0  0  0  0  0  0  0  0  0  0  0
   -1.6098   -2.3466   29.8718 C   0  0  0  0  0  0  0  0  0  0  0  0
   -1.6862   -3.4490   29.2556 O   0  0  0  0  0  0  0  0  0  0  0  0
   -1.0149   -2.3584   31.2925 C   0  0  0  0  0  0  0  0  0  0  0  0
   -1.8511   -1.5047   32.2368 N   0  0  0  0  0  0  0  0  0  0  0  0
   -1.9757   -4.6218   24.7651 C   0  0  0  0  0  0  0  0  0  0  0  0
   -3.1744   -4.4675   24.2855 O   0  0  0  0  0  0  0  0  0  0  0  0
   -1.2461   -3.6057   25.1885 N   0  0  0  0  0  0  0  0  0  0  0  0
   -0.3975   -2.8503   24.2640 C   0  0  2  0  0  0  0  0  0  0  0  0
   -1.2927   -2.0241   23.3381 C   0  0  0  0  0  0  0  0  0  0  0  0
   -2.1930   -1.3318   23.8325 O   0  0  0  0  0  0  0  0  0  0  0  0
   -1.3123   -2.2706   22.0137 N   0  0  0  0  0  0  0  0  0  0  0  0
   -0.7854   -1.3299   20.9321 C   0  0  0  0  0  0  0  0  0  0  0  0
   -1.8075   -1.4296   19.8896 C   0  0  0  0  0  0  0  0  0  0  0  0
   -2.4246   -2.7488   19.9818 C   0  0  0  0  0  0  0  0  0  0  0  0
   -2.2220   -3.2250   21.4371 C   0  0  2  0  0  0  0  0  0  0  0  0
   -3.6180   -3.2709   22.1106 C   0  0  0  0  0  0  0  0  0  0  0  0
   -4.2378   -4.3191   22.2472 O   0  0  0  0  0  0  0  0  0  0  0  0
   -3.8033   -2.1980   22.9478 N   0  0  0  0  0  0  0  0  0  0  0  0
   -4.5761   -1.0615   22.6107 C   0  0  1  0  0  0  0  0  0  0  0  0
   -5.4121   -1.3545   21.3004 C   0  0  0  0  0  0  0  0  0  0  0  0
   -4.5361   -1.7670   20.2756 O   0  0  0  0  0  0  0  0  0  0  0  0
   -5.5384   -0.7429   23.7499 C   0  0  0  0  0  0  0  0  0  0  0  0
   -6.2527   -1.6036   24.2533 O   0  0  0  0  0  0  0  0  0  0  0  0
   -5.3437    0.4174   24.3495 N   0  0  0  0  0  0  0  0  0  0  0  0
   -6.3386    1.4890   24.4973 C   0  0  2  0  0  0  0  0  0  0  0  0
   -6.1495    2.1783   25.8516 C   0  0  0  0  0  0  0  0  0  0  0  0
   -6.2854    3.6735   25.8095 C   0  0  0  0  0  0  0  0  0  0  0  0
   -5.6271    4.4841   26.7156 C   0  0  0  0  0  0  0  0  0  0  0  0
   -5.2983    5.7973   26.3808 C   0  0  0  0  0  0  0  0  0  0  0  0
   -5.7309    6.3507   25.2047 C   0  0  0  0  0  0  0  0  0  0  0  0
   -6.4346    5.5867   24.2999 C   0  0  0  0  0  0  0  0  0  0  0  0
   -6.7698    4.2984   24.6361 C   0  0  0  0  0  0  0  0  0  0  0  0
   -7.7976    0.9700   24.4230 C   0  0  0  0  0  0  0  0  0  0  0  0
   -8.6315    1.5818   23.7481 O   0  0  0  0  0  0  0  0  0  0  0  0
   -8.2579    0.1540   25.2637 O   0  0  0  0  0  0  0  0  0  0  0  0
    0.4786   -3.8115   23.4269 C   0  0  1  0  0  0  0  0  0  0  0  0
    0.2616   -3.6161   21.9534 C   0  0  0  0  0  0  0  0  0  0  0  0
    1.9550   -3.6022   23.7971 C   0  0  0  0  0  0  0  0  0  0  0  0
 24 23  1  0
 23 21  1  0
 21 22  2  0
 21 20  1  0
 20 12  1  0
 12 10  1  0
 12 13  1  6
 10 11  2  0
 10  9  1  0
 13 14  1  0
 14 15  4  0
 14 19  4  0
 15 16  4  0
 19 18  4  0
 16 17  4  0
 18 17  4  0
  9  8  1  0
  8  6  1  0
  6  7  2  0
  6  5  1  0
  4  5  1  6
  4 25  1  0
  4  2  1  0
 25 26  2  0
 25 27  1  0
  2  1  1  6
  2  3  1  0
 28 27  1  1
 28 29  1  0
 28 56  1  0
 29 30  2  0
 29 31  1  0
 56 57  1  6
 56 58  1  0
 31 35  1  0
 31 32  1  0
 35 36  1  6
 35 34  1  0
 36 37  2  0
 36 38  1  0
 34 33  1  0
 33 32  1  0
 38 39  1  0
 39 42  1  0
 39 40  1  6
 42 43  2  0
 42 44  1  0
 40 41  1  0
 44 45  1  0
 45 53  1  0
 45 46  1  6
 53 54  2  0
 53 55  1  0
 46 47  1  0
 47 48  4  0
 47 52  4  0
 48 49  4  0
 52 51  4  0
 49 50  4  0
 51 50  4  0
M  CHG  1  24   1
M  END
$$$$
