
     RDKit          3D

 58 60  0  0  0  0  0  0  0  0999 V2000
   -5.4410   -1.2190   28.5110 C   0  0  0  0  0  0  0  0  0  0  0  0
   -4.7410   -1.8630   27.3250 C   0  0  1  0  0  0  0  0  0  0  0  0
   -4.2990   -3.2680   27.6790 C   0  0  0  0  0  0  0  0  0  0  0  0
   -5.6730   -1.8900   26.1030 C   0  0  2  0  0  0  0  0  0  0  0  0
   -4.9850   -2.3940   24.9140 N   0  0  0  0  0  0  0  0  0  0  0  0
   -5.5120   -3.3060   24.1000 C   0  0  0  0  0  0  0  0  0  0  0  0
   -6.6110   -3.8400   24.3110 O   0  0  0  0  0  0  0  0  0  0  0  0
   -4.7260   -3.6820   22.8680 C   0  0  0  0  0  0  0  0  0  0  0  0
   -3.3260   -3.3240   22.9310 N   0  0  0  0  0  0  0  0  0  0  0  0
   -2.4930   -3.9760   23.7280 C   0  0  0  0  0  0  0  0  0  0  0  0
   -2.8550   -4.8900   24.4770 O   0  0  0  0  0  0  0  0  0  0  0  0
   -1.0280   -3.5590   23.6530 C   0  0  2  0  0  0  0  0  0  0  0  0
   -0.2270   -4.6110   22.8770 C   0  0  0  0  0  0  0  0  0  0  0  0
   -0.6710   -4.7470   21.4260 C   0  0  0  0  0  0  0  0  0  0  0  0
   -0.0700   -3.9980   20.4130 C   0  0  0  0  0  0  0  0  0  0  0  0
   -0.5080   -4.1000   19.0730 C   0  0  0  0  0  0  0  0  0  0  0  0
   -1.5490   -4.9470   18.7540 C   0  0  0  0  0  0  0  0  0  0  0  0
   -2.1690   -5.6930   19.7580 C   0  0  0  0  0  0  0  0  0  0  0  0
   -1.7230   -5.5840   21.0890 C   0  0  0  0  0  0  0  0  0  0  0  0
   -0.5110   -3.3670   25.0000 N   0  0  0  0  0  0  0  0  0  0  0  0
   -0.9750   -2.3700   25.7570 C   0  0  0  0  0  0  0  0  0  0  0  0
   -1.8450   -1.5730   25.3640 O   0  0  0  0  0  0  0  0  0  0  0  0
   -0.3920   -2.2410   27.1510 C   0  0  0  0  0  0  0  0  0  0  0  0
   -0.7940   -3.3290   28.0260 N   0  0  0  0  0  0  0  0  0  0  0  0
   -6.2090   -0.4960   25.8010 C   0  0  0  0  0  0  0  0  0  0  0  0
   -5.4600    0.3920   25.3680 O   0  0  0  0  0  0  0  0  0  0  0  0
   -7.5000   -0.3010   26.0470 N   0  0  0  0  0  0  0  0  0  0  0  0
   -8.1490    0.9730   25.7110 C   0  0  2  0  0  0  0  0  0  0  0  0
   -7.6450    2.0610   26.6550 C   0  0  0  0  0  0  0  0  0  0  0  0
   -7.5120    1.7980   27.8640 O   0  0  0  0  0  0  0  0  0  0  0  0
   -7.3590    3.2670   26.1710 N   0  0  0  0  0  0  0  0  0  0  0  0
   -7.3130    3.6780   24.7500 C   0  0  0  0  0  0  0  0  0  0  0  0
   -6.4270    4.8880   24.7560 C   0  0  0  0  0  0  0  0  0  0  0  0
   -6.4980    5.4750   26.0820 C   0  0  0  0  0  0  0  0  0  0  0  0
   -6.8270    4.3280   27.0450 C   0  0  1  0  0  0  0  0  0  0  0  0
   -7.8130    4.8200   28.0980 C   0  0  0  0  0  0  0  0  0  0  0  0
   -8.9880    4.4670   28.1460 O   0  0  0  0  0  0  0  0  0  0  0  0
   -7.2650    5.7010   28.9460 N   0  0  0  0  0  0  0  0  0  0  0  0
   -8.0260    6.5430   29.8550 C   0  0  1  0  0  0  0  0  0  0  0  0
   -7.8750    6.0610   31.3130 C   0  0  0  0  0  0  0  0  0  0  0  0
   -8.8630    5.0950   31.6310 O   0  0  0  0  0  0  0  0  0  0  0  0
   -7.5550    7.9910   29.7060 C   0  0  0  0  0  0  0  0  0  0  0  0
   -6.3900    8.2570   29.3800 O   0  0  0  0  0  0  0  0  0  0  0  0
   -8.4890    8.9180   29.9160 N   0  0  0  0  0  0  0  0  0  0  0  0
   -8.2270   10.3640   29.9530 C   0  0  1  0  0  0  0  0  0  0  0  0
   -8.9450   10.9700   31.1760 C   0  0  0  0  0  0  0  0  0  0  0  0
   -8.5360   10.3440   32.4870 C   0  0  0  0  0  0  0  0  0  0  0  0
   -7.6500   10.9920   33.3370 C   0  0  0  0  0  0  0  0  0  0  0  0
   -7.2570   10.4110   34.5310 C   0  0  0  0  0  0  0  0  0  0  0  0
   -7.7460    9.1770   34.8870 C   0  0  0  0  0  0  0  0  0  0  0  0
   -8.6270    8.5170   34.0510 C   0  0  0  0  0  0  0  0  0  0  0  0
   -9.0200    9.1000   32.8600 C   0  0  0  0  0  0  0  0  0  0  0  0
   -6.7430   10.7400   29.9950 C   0  0  0  0  0  0  0  0  0  0  0  0
   -6.2310   11.2410   31.0030 O   0  0  0  0  0  0  0  0  0  0  0  0
   -6.0020   10.5570   29.0220 O   0  0  0  0  0  0  0  0  0  0  0  0
   -9.6720    0.8250   25.7980 C   0  0  1  0  0  0  0  0  0  0  0  0
  -10.3480    2.1800   25.6250 C   0  0  0  0  0  0  0  0  0  0  0  0
  -10.1670   -0.1850   24.7320 C   0  0  0  0  0  0  0  0  0  0  0  0
 24 23  1  0
 23 21  1  0
 21 22  2  0
 21 20  1  0
 20 12  1  0
 12 10  1  0
 12 13  1  1
 10 11  2  0
 10  9  1  0
 13 14  1  0
 14 15  2  0
 14 19  1  0
 15 16  1  0
 19 18  2  0
 16 17  2  0
 18 17  1  0
  9  8  1  0
  8  6  1  0
  6  7  2  0
  6  5  1  0
  4  5  1  6
  4 25  1  0
  4  2  1  0
 25 26  2  0
 25 27  1  0
  2  1  1  1
  2  3  1  0
 28 27  1  1
 28 29  1  0
 28 56  1  0
 29 30  2  0
 29 31  1  0
 56 57  1  6
 56 58  1  0
 31 35  1  0
 31 32  1  0
 35 36  1  1
 35 34  1  0
 36 37  2  0
 36 38  1  0
 34 33  1  0
 33 32  1  0
 38 39  1  0
 39 42  1  0
 39 40  1  1
 42 43  2  0
 42 44  1  0
 40 41  1  0
 44 45  1  0
 45 53  1  0
 45 46  1  1
 53 54  2  0
 53 55  1  0
 46 47  1  0
 47 48  2  0
 47 52  1  0
 48 49  1  0
 52 51  2  0
 49 50  2  0
 51 50  1  0
M  CHG  1  24   1
M  END
$$$$
