
     RDKit          3D

 16 18  0  0  0  0  0  0  0  0999 V2000
   -4.2272  -11.0297   34.1771 C   0  0  0  0  0  0  0  0  0  0  0  0
   -4.2446  -12.2494   33.2607 C   0  0  1  0  0  0  0  0  0  0  0  0
   -5.5587  -12.2373   32.4781 C   0  0  0  0  0  0  0  0  0  0  0  0
   -3.0523  -12.2950   32.3066 C   0  0  0  0  0  0  0  0  0  0  0  0
   -2.6165  -13.8194   32.1307 C   0  0  1  0  0  0  0  0  0  0  0  0
   -3.1994  -14.3226   30.7856 C   0  0  0  0  0  0  0  0  0  0  0  0
   -1.1311  -14.0362   32.2063 C   0  0  0  0  0  0  0  0  0  0  0  0
   -0.1763  -14.1564   31.2033 C   0  0  0  0  0  0  0  0  0  0  0  0
    1.1416  -14.4020   31.5357 C   0  0  0  0  0  0  0  0  0  0  0  0
    1.4979  -14.5580   32.8663 C   0  0  0  0  0  0  0  0  0  0  0  0
    0.5451  -14.5875   33.9059 C   0  0  0  0  0  0  0  0  0  0  0  0
   -0.8025  -14.3814   33.5156 C   0  0  0  0  0  0  0  0  0  0  0  0
   -1.9211  -14.4859   34.3130 N   0  0  0  0  0  0  0  0  0  0  0  0
   -3.1001  -14.5182   33.4530 C   0  0  2  0  0  0  0  0  0  0  0  0
   -3.7140  -15.9121   33.3275 C   0  0  0  0  0  0  0  0  0  0  0  0
   -4.1194  -13.5406   34.0742 N   0  0  0  0  0  0  0  0  0  0  0  0
  5  4  1  0
  4  2  1  0
  5  6  1  6
 12 11  4  0
  7 12  4  0
 12 13  1  0
  8  9  4  0
  7  8  4  0
 14 15  1  6
  9 10  4  0
  2  1  1  1
  5  7  1  0
  5 14  1  0
  2  3  1  0
  2 16  1  0
 11 10  4  0
 14 13  1  0
 14 16  1  0
M  CHG  1  16   1
M  END
$$$$
