
     RDKit          3D

 23 24  0  0  0  0  0  0  0  0999 V2000
   -4.9720   -3.7350   12.6630 O   0  0  0  0  0  0  0  0  0  0  0  0
   -5.9290   -3.0810   13.1500 C   0  0  0  0  0  0  0  0  0  0  0  0
   -6.2900   -1.8920   12.6260 N   0  0  0  0  0  0  0  0  0  0  0  0
   -7.5420   -1.2440   12.9580 C   0  0  0  0  0  0  0  0  0  0  0  0
   -8.4730   -1.6670   11.8170 C   0  0  2  0  0  0  0  0  0  0  0  0
   -8.4190   -3.1750   11.7500 N   0  0  0  0  0  0  0  0  0  0  0  0
   -8.9100   -3.6120   10.5450 O   0  0  0  0  0  0  0  0  0  0  0  0
   -8.7710   -5.2380   10.6530 S   0  0  1  0  0  0  0  0  0  0  0  0
   -7.9120   -5.5930    9.5770 O   0  0  0  0  0  0  0  0  0  0  0  0
   -8.1790   -5.2740   11.9450 O   0  0  0  0  0  0  0  0  0  0  0  0
  -10.1280   -5.6630   10.6570 O   0  0  0  0  0  0  0  0  0  0  0  0
   -7.9090   -1.1160   10.4630 C   0  0  0  0  0  0  0  0  0  0  0  0
   -6.4170   -1.4810   10.2420 C   0  0  0  0  0  0  0  0  0  0  0  0
   -5.5990   -1.3110   11.5210 C   0  0  1  0  0  0  0  0  0  0  0  0
   -5.2500    0.1420   11.7620 C   0  0  0  0  0  0  0  0  0  0  0  0
   -5.5810    0.7250   12.8220 O   0  0  0  0  0  0  0  0  0  0  0  0
   -4.5290    0.8320   10.8940 N   0  0  0  0  0  0  0  0  0  0  0  0
   -4.1510    2.2120   11.1690 C   0  0  1  0  0  0  0  0  0  0  0  0
   -3.0720    2.7190   10.2070 C   0  0  0  0  0  0  0  0  0  0  0  0
   -2.5530    4.0920   10.6620 C   0  0  0  0  0  0  0  0  0  0  0  0
   -3.6550    5.1100   10.7340 N   0  0  0  0  0  0  0  0  0  0  0  0
   -4.9030    4.6440   11.4690 C   0  0  0  0  0  0  0  0  0  0  0  0
   -5.3500    3.1990   11.1070 C   0  0  0  0  0  0  0  0  0  0  0  0
 12 13  1  0
  5 12  1  0
 19 20  1  0
 20 21  1  0
 23 22  1  0
 22 21  1  0
  5  4  1  0
  4  3  1  0
  3  2  1  0
  2  1  2  0
 13 14  1  0
 14 15  1  1
  3 14  1  0
 18 19  1  0
 18 23  1  0
 18 17  1  6
 15 17  1  0
 15 16  2  0
  5  6  1  6
  7  6  1  0
  8  9  2  0
  8 10  2  0
  8 11  1  1
  7  8  1  0
M  CHG  2   6   1  21   1
M  END
$$$$
