
     RDKit          3D

 25 27  0  0  0  0  0  0  0  0999 V2000
   36.7324    4.9838   54.3974 C   0  0  0  0  0  0  0  0  0  0  0  0
   35.3731    4.8373   55.1649 C   0  0  0  0  0  0  0  0  0  0  0  0
   35.3978    3.5423   55.8586 O   0  0  0  0  0  0  0  0  0  0  0  0
   34.2511    2.6425   55.8326 C   0  0  0  0  0  0  0  0  0  0  0  0
   34.5957    1.3422   56.5309 C   0  0  0  0  0  0  0  0  0  0  0  0
   34.6019    0.2939   55.5721 O   0  0  0  0  0  0  0  0  0  0  0  0
   35.5718   -0.7771   55.6969 C   0  0  0  0  0  0  0  0  0  0  0  0
   36.9203   -0.3305   55.5903 C   0  0  0  0  0  0  0  0  0  0  0  0
   37.9822   -1.0424   56.1263 C   0  0  0  0  0  0  0  0  0  0  0  0
   37.6671   -2.1607   57.0086 C   0  0  0  0  0  0  0  0  0  0  0  0
   38.3311   -2.1629   58.1835 C   0  0  0  0  0  0  0  0  0  0  0  0
   38.6203   -0.8491   58.9342 C   0  0  0  0  0  0  0  0  0  0  0  0
   38.4832   -1.3597   60.3541 N   0  0  0  0  0  0  0  0  0  0  0  0
   38.3366   -0.3504   61.4710 C   0  0  0  0  0  0  0  0  0  0  0  0
   37.8424   -0.9578   62.7387 C   0  0  2  0  0  0  0  0  0  0  0  0
   37.6145    0.2908   63.5816 N   0  0  0  0  0  0  0  0  0  0  0  0
   36.9693   -0.1127   64.7657 C   0  0  0  0  0  0  0  0  0  0  0  0
   37.9920   -1.2322   65.0974 C   0  0  2  0  0  0  0  0  0  0  0  0
   38.9773   -0.9361   66.0981 O   0  0  0  0  0  0  0  0  0  0  0  0
   38.6542   -1.6672   63.7825 C   0  0  2  0  0  0  0  0  0  0  0  0
   40.1050   -1.3399   63.8842 O   0  0  0  0  0  0  0  0  0  0  0  0
   38.4883   -2.6409   60.2120 N   0  0  0  0  0  0  0  0  0  0  0  0
   38.4443   -3.1436   59.0547 N   0  0  0  0  0  0  0  0  0  0  0  0
   36.3921   -2.7520   56.8811 C   0  0  0  0  0  0  0  0  0  0  0  0
   35.3382   -2.0693   56.2670 C   0  0  0  0  0  0  0  0  0  0  0  0
  8  7  4  0
  9  8  4  0
  5  4  1  0
  6  5  1  0
  2  1  1  0
  3  2  1  0
 15 14  1  6
 15 16  1  0
 15 20  1  0
 25  7  4  0
  7  6  1  0
 24 25  4  0
  4  3  1  0
 13 14  1  0
 16 17  1  0
 20 21  1  6
 10  9  4  0
 22 13  4  0
 13 12  4  0
 18 19  1  6
 18 17  1  0
 23 22  4  0
 20 18  1  0
 11 23  4  0
 10 24  4  0
 10 11  1  0
 11 12  4  0
M  CHG  1  16   1
M  END
$$$$
