
     RDKit          3D

 23 26  0  0  0  0  0  0  0  0999 V2000
  -57.0600    6.6010   -9.2700 N   0  0  0  0  0  0  0  0  0  0  0  0
  -57.0000    7.8090   -8.6090 C   0  0  0  0  0  0  0  0  0  0  0  0
  -57.9890    8.5010   -8.0930 N   0  0  0  0  0  0  0  0  0  0  0  0
  -57.5240    9.7320   -7.4700 C   0  0  0  0  0  0  0  0  0  0  0  0
  -58.3420   10.6960   -6.8250 C   0  0  0  0  0  0  0  0  0  0  0  0
  -57.7630   11.8510   -6.2590 C   0  0  0  0  0  0  0  0  0  0  0  0
  -56.3880   12.1370   -6.3040 C   0  0  0  0  0  0  0  0  0  0  0  0
  -55.8930   13.4860   -5.5950 C   0  0  0  0  0  0  0  0  0  0  0  0
  -55.1270   13.2740   -4.3100 N   0  0  0  0  0  0  0  0  0  0  0  0
  -55.4880   12.2690   -3.3270 C   0  0  0  0  0  0  0  0  0  0  0  0
  -56.5000   11.5950   -3.6320 O   0  0  0  0  0  0  0  0  0  0  0  0
  -54.8430   11.8530   -1.9940 C   0  0  0  0  0  0  0  0  0  0  0  0
  -54.5930   12.6200   -0.8310 C   0  0  0  0  0  0  0  0  0  0  0  0
  -53.9680   11.7270    0.1700 C   0  0  0  0  0  0  0  0  0  0  0  0
  -53.5050   11.9650    1.5090 C   0  0  0  0  0  0  0  0  0  0  0  0
  -52.9430   10.8960    2.2230 C   0  0  0  0  0  0  0  0  0  0  0  0
  -52.8380    9.6180    1.6490 C   0  0  0  0  0  0  0  0  0  0  0  0
  -53.2760    9.3670    0.3620 C   0  0  0  0  0  0  0  0  0  0  0  0
  -53.8580   10.4530   -0.4000 C   0  0  0  0  0  0  0  0  0  0  0  0
  -54.3800   10.5280   -1.6790 N   0  0  0  0  0  0  0  0  0  0  0  0
  -55.5730   11.1670   -6.9280 C   0  0  0  0  0  0  0  0  0  0  0  0
  -56.1490   10.0030   -7.5000 C   0  0  0  0  0  0  0  0  0  0  0  0
  -55.3760    8.6570   -8.3520 S   0  0  0  0  0  0  0  0  0  0  0  0
  4 22  2  0
  4  5  1  0
  3  4  1  0
 19 14  2  0
 19 18  1  0
 20 19  1  0
 10 12  1  0
  9 10  1  0
 10 11  2  0
 12 13  2  0
 12 20  1  0
 13 14  1  0
 14 15  1  0
 15 16  2  0
 17 16  1  0
 18 17  2  0
  7  8  1  0
  8  9  1  0
 21  7  2  0
  7  6  1  0
 22 21  1  0
 22 23  1  0
  2  1  1  0
  2  3  2  0
  2 23  1  0
  5  6  2  0
M  END
$$$$
