
     RDKit          3D

 28 30  0  0  0  0  0  0  0  0999 V2000
   30.3847   22.8029   96.2739 O   0  0  0  0  0  0  0  0  0  0  0  0
   30.6188   21.6930   96.6866 C   0  0  0  0  0  0  0  0  0  0  0  0
   31.9906   21.0961   96.1831 C   0  0  0  0  0  0  0  0  0  0  0  0
   32.0430   20.4085   94.9153 C   0  0  0  0  0  0  0  0  0  0  0  0
   32.2067   19.0265   94.9023 C   0  0  0  0  0  0  0  0  0  0  0  0
   32.5025   18.3201   96.1365 C   0  0  0  0  0  0  0  0  0  0  0  0
   31.7748   17.1191   96.5460 N   0  0  0  0  0  0  0  0  0  0  0  0
   31.1566   16.5181   95.7145 O   0  0  0  0  0  0  0  0  0  0  0  0
   31.3221   17.0625   97.8709 O   0  0  0  0  0  0  0  0  0  0  0  0
   32.9582   19.0904   97.1790 C   0  0  0  0  0  0  0  0  0  0  0  0
   32.7490   20.4757   97.2066 C   0  0  0  0  0  0  0  0  0  0  0  0
   33.1842   21.1670   98.3313 N   0  0  0  0  0  0  0  0  0  0  0  0
   32.4007   21.8923   98.8522 O   0  0  0  0  0  0  0  0  0  0  0  0
   34.5104   21.5432   98.3381 O   0  0  0  0  0  0  0  0  0  0  0  0
   29.3039   20.8556   96.7853 N   0  0  0  0  0  0  0  0  0  0  0  0
   28.7549   20.5368   95.4486 C   0  0  0  0  0  0  0  0  0  0  0  0
   29.4367   19.2717   95.0172 C   0  0  0  0  0  0  0  0  0  0  0  0
   30.0606   18.4434   95.8958 N   0  0  1  0  0  0  0  0  0  0  0  0
   31.2659   18.7284   95.8627 C   0  0  0  0  0  0  0  0  0  0  0  0
   31.8302   18.4489   97.2711 C   0  0  0  0  0  0  0  0  0  0  0  0
   31.6737   19.3446   98.2645 C   0  0  0  0  0  0  0  0  0  0  0  0
   32.0800   19.0468   99.6304 C   0  0  0  0  0  0  0  0  0  0  0  0
   32.5620   17.7125   99.9139 C   0  0  0  0  0  0  0  0  0  0  0  0
   32.5486   17.3195  101.1807 F   0  0  0  0  0  0  0  0  0  0  0  0
   32.8179   16.8510   98.8751 C   0  0  0  0  0  0  0  0  0  0  0  0
   32.5471   17.2047   97.5499 C   0  0  0  0  0  0  0  0  0  0  0  0
   29.6569   18.4978   97.1765 C   0  0  0  0  0  0  0  0  0  0  0  0
   29.2902   19.7804   97.8132 C   0  0  0  0  0  0  0  0  0  0  0  0
 21 22  4  0
 21 20  4  0
 22 23  4  0
 20 26  4  0
 20 19  1  0
 23 25  4  0
 23 24  1  0
 26 25  4  0
 18 19  1  6
 18 17  1  0
 18 27  1  0
 17 16  1  0
 16 15  1  0
 15 28  1  0
 15  2  1  0
 28 27  1  0
  2  3  1  0
  2  1  2  0
  3 11  4  0
  3  4  4  0
 11 10  4  0
 10  6  4  0
 11 12  1  0
  6  5  4  0
  6  7  1  0
  5  4  4  0
  7  9  1  0
  7  8  2  0
 12 14  1  0
 12 13  2  0
M  CHG  5   7   1   9  -1  12   1  14  -1  18   1
M  END
$$$$
