
     RDKit          3D

 28 30  0  0  0  0  0  0  0  0999 V2000
   31.9940   20.3740   94.5000 O   0  0  0  0  0  0  0  0  0  0  0  0
   31.8020   19.4240   95.1970 C   0  0  0  0  0  0  0  0  0  0  0  0
   32.9930   18.9660   96.1010 C   0  0  0  0  0  0  0  0  0  0  0  0
   34.2910   18.8500   95.6130 C   0  0  0  0  0  0  0  0  0  0  0  0
   35.3280   18.4960   96.4970 C   0  0  0  0  0  0  0  0  0  0  0  0
   35.0550   18.2840   97.8640 C   0  0  0  0  0  0  0  0  0  0  0  0
   36.0590   17.9310   98.8900 N   0  0  0  0  0  0  0  0  0  0  0  0
   37.1660   17.5960   98.6280 O   0  0  0  0  0  0  0  0  0  0  0  0
   35.6630   18.0450  100.2360 O   0  0  0  0  0  0  0  0  0  0  0  0
   33.7730   18.4280   98.3400 C   0  0  0  0  0  0  0  0  0  0  0  0
   32.7500   18.7750   97.4720 C   0  0  0  0  0  0  0  0  0  0  0  0
   31.4810   18.9070   98.0420 N   0  0  0  0  0  0  0  0  0  0  0  0
   30.9060   19.8970   97.9490 O   0  0  0  0  0  0  0  0  0  0  0  0
   30.9610   17.8420   98.7550 O   0  0  0  0  0  0  0  0  0  0  0  0
   30.4320   18.8680   95.2030 N   0  0  0  0  0  0  0  0  0  0  0  0
   29.4480   19.5000   94.3320 C   0  0  0  0  0  0  0  0  0  0  0  0
   28.2800   19.7900   95.2400 C   0  0  0  0  0  0  0  0  0  0  0  0
   27.8190   18.6310   95.7440 N   0  0  2  0  0  0  0  0  0  0  0  0
   26.7680   18.8860   96.3920 C   0  0  0  0  0  0  0  0  0  0  0  0
   25.8140   17.6700   96.2130 C   0  0  0  0  0  0  0  0  0  0  0  0
   24.4640   17.8730   96.3160 C   0  0  0  0  0  0  0  0  0  0  0  0
   23.5600   16.7800   96.1570 C   0  0  0  0  0  0  0  0  0  0  0  0
   24.0740   15.4790   95.9010 C   0  0  0  0  0  0  0  0  0  0  0  0
   23.2200   14.4810   95.7630 F   0  0  0  0  0  0  0  0  0  0  0  0
   25.4250   15.2670   95.7900 C   0  0  0  0  0  0  0  0  0  0  0  0
   26.3250   16.3590   95.9470 C   0  0  0  0  0  0  0  0  0  0  0  0
   28.6320   17.9210   96.5430 C   0  0  0  0  0  0  0  0  0  0  0  0
   30.0620   17.7290   96.0260 C   0  0  0  0  0  0  0  0  0  0  0  0
 21 22  2  0
 21 20  1  0
 22 23  1  0
 20 26  2  0
 20 19  1  0
 23 25  2  0
 23 24  1  0
 26 25  1  0
 18 19  1  1
 18 17  1  0
 18 27  1  0
 17 16  1  0
 16 15  1  0
 15 28  1  0
 15  2  1  0
 28 27  1  0
  2  3  1  0
  2  1  2  0
  3 11  1  0
  3  4  2  0
 11 10  2  0
 10  6  1  0
 11 12  1  0
  6  5  2  0
  6  7  1  0
  5  4  1  0
  7  9  1  0
  7  8  2  0
 12 14  1  0
 12 13  2  0
M  CHG  5   7   1   9  -1  12   1  14  -1  18   1
M  END
$$$$
