
     RDKit          3D

 29 31  0  0  0  0  0  0  0  0999 V2000
   -1.7264  -34.1628   48.0543 H   0  0  0  0  0  0  0  0  0  0  0  0
   -1.7718  -34.1826   49.2617 N   0  0  0  0  0  0  0  0  0  0  0  0
   -0.6158  -34.3950   49.7041 N   0  0  0  0  0  0  0  0  0  0  0  0
   -0.1334  -34.2484   50.9450 N   0  0  0  0  0  0  0  0  0  0  0  0
    1.3772  -34.1981   51.4690 C   0  0  0  0  0  0  0  0  0  0  0  0
    1.2255  -34.1982   53.0067 C   0  0  0  0  0  0  0  0  0  0  0  0
    2.3695  -33.7576   53.7074 O   0  0  0  0  0  0  0  0  0  0  0  0
    2.7695  -34.4921   54.8663 C   0  0  0  0  0  0  0  0  0  0  0  0
    1.9417  -34.3294   56.1216 C   0  0  0  0  0  0  0  0  0  0  0  0
    0.7009  -34.1019   55.4617 O   0  0  0  0  0  0  0  0  0  0  0  0
   -0.3961  -35.0151   55.8888 C   0  0  0  0  0  0  0  0  0  0  0  0
   -0.7491  -36.1144   55.0893 C   0  0  0  0  0  0  0  0  0  0  0  0
   -1.4790  -37.2266   55.7378 C   0  0  0  0  0  0  0  0  0  0  0  0
   -1.7753  -37.0854   57.1150 C   0  0  0  0  0  0  0  0  0  0  0  0
   -1.9455  -38.1203   58.0538 C   0  0  0  0  0  0  0  0  0  0  0  0
   -3.0773  -38.3490   58.6409 N   0  0  0  0  0  0  0  0  0  0  0  0
   -2.8389  -38.5407   59.8916 N   0  0  0  0  0  0  0  0  0  0  0  0
   -1.6134  -38.5086   60.2985 N   0  0  0  0  0  0  0  0  0  0  0  0
   -0.8582  -38.2132   61.5783 C   0  0  0  0  0  0  0  0  0  0  0  0
   -1.3431  -38.9144   62.8346 C   0  0  2  0  0  0  0  0  0  0  0  0
   -1.9991  -37.7088   63.5145 N   0  0  0  0  0  0  0  0  0  0  0  0
   -2.5823  -38.1695   64.7555 C   0  0  0  0  0  0  0  0  0  0  0  0
   -1.4080  -39.0642   65.2704 C   0  0  1  0  0  0  0  0  0  0  0  0
   -1.6955  -40.2053   65.9902 O   0  0  0  0  0  0  0  0  0  0  0  0
   -0.4558  -39.3488   64.0131 C   0  0  1  0  0  0  0  0  0  0  0  0
    0.0502  -40.7145   64.0320 O   0  0  0  0  0  0  0  0  0  0  0  0
   -0.8001  -38.5963   58.9673 C   0  0  0  0  0  0  0  0  0  0  0  0
   -1.6161  -35.8111   57.8023 C   0  0  0  0  0  0  0  0  0  0  0  0
   -0.8401  -34.8070   57.1870 C   0  0  0  0  0  0  0  0  0  0  0  0
 20 19  1  6
 18 19  1  0
 13 14  4  0
 12 13  4  0
 23 22  1  0
 22 21  1  0
 25 23  1  0
 23 24  1  6
 20 25  1  0
 25 26  1  6
 28 14  4  0
 29 28  4  0
 14 15  1  0
 15 27  1  0
 15 16  2  0
 27 18  1  0
 11 12  4  0
 11 29  4  0
 10 11  1  0
  8  9  1  0
  9 10  1  0
  7  8  1  0
  6  5  1  0
  6  7  1  0
  5  4  1  0
 20 21  1  0
 18 17  2  0
 17 16  1  0
  4  3  1  0
  3  2  2  0
  2  1  1  0
M  CHG  2  18   1  21   1
M  END
$$$$
