
     RDKit          3D

 31 35  0  0  0  0  0  0  0  0999 V2000
    6.8230   58.1590   31.9700 C   0  0  0  0  0  0  0  0  0  0  0  0
    5.8660   58.6270   31.0070 O   0  0  0  0  0  0  0  0  0  0  0  0
    4.9950   57.6830   30.5350 C   0  0  0  0  0  0  0  0  0  0  0  0
    5.1020   56.4020   30.9370 N   0  0  0  0  0  0  0  0  0  0  0  0
    4.2000   55.5720   30.3840 C   0  0  0  0  0  0  0  0  0  0  0  0
    4.3440   54.1770   30.7920 C   0  0  0  0  0  0  0  0  0  0  0  0
    5.4140   53.8300   31.3140 O   0  0  0  0  0  0  0  0  0  0  0  0
    3.1880   53.2330   30.5750 C   0  0  1  0  0  0  0  0  0  0  0  0
    3.2980   51.9850   29.7270 C   0  0  0  0  0  0  0  0  0  0  0  0
    3.2290   51.8870   31.2540 C   0  0  2  0  0  0  0  0  0  0  0  0
    2.0390   51.2960   31.9790 C   0  0  0  0  0  0  0  0  0  0  0  0
    2.1390   50.6120   33.0090 O   0  0  0  0  0  0  0  0  0  0  0  0
    0.8620   51.5540   31.3520 O   0  0  0  0  0  0  0  0  0  0  0  0
    3.2220   55.8850   29.5210 N   0  0  0  0  0  0  0  0  0  0  0  0
    3.1660   57.1810   29.1710 C   0  0  0  0  0  0  0  0  0  0  0  0
    4.0400   58.1560   29.6550 C   0  0  0  0  0  0  0  0  0  0  0  0
    3.9650   59.5220   29.2670 N   0  0  0  0  0  0  0  0  0  0  0  0
    2.6220   60.1200   29.1260 C   0  0  0  0  0  0  0  0  0  0  0  0
    2.0260   59.9480   27.7850 C   0  0  1  0  0  0  0  0  0  0  0  0
    1.1260   60.9880   27.1610 C   0  0  0  0  0  0  0  0  0  0  0  0
    2.4580   60.6950   26.5570 C   0  0  0  0  0  0  0  0  0  0  0  0
    5.0100   60.4760   29.0730 C   0  0  0  0  0  0  0  0  0  0  0  0
    5.2220   61.5520   29.9560 C   0  0  0  0  0  0  0  0  0  0  0  0
    6.2230   62.5000   29.7450 C   0  0  0  0  0  0  0  0  0  0  0  0
    7.0350   62.3940   28.6260 C   0  0  0  0  0  0  0  0  0  0  0  0
    6.8590   61.3180   27.7560 C   0  0  0  0  0  0  0  0  0  0  0  0
    7.6850   61.1840   26.6580 C   0  0  0  0  0  0  0  0  0  0  0  0
    7.5120   60.1260   25.7670 C   0  0  0  0  0  0  0  0  0  0  0  0
    6.4980   59.1970   25.9550 C   0  0  0  0  0  0  0  0  0  0  0  0
    5.6720   59.3270   27.0660 C   0  0  0  0  0  0  0  0  0  0  0  0
    5.8470   60.3630   27.9700 C   0  0  0  0  0  0  0  0  0  0  0  0
 29 28  2  0
 30 29  1  0
 27 28  1  0
 26 27  2  0
 22 23  2  0
 22 31  1  0
 17 22  1  0
 23 24  1  0
 24 25  2  0
 26 25  1  0
 16 15  2  0
 17 16  1  0
 16  3  1  0
 15 14  1  0
  5  6  1  0
 14  5  2  0
  4  5  1  0
  8  6  1  1
  6  7  2  0
 10 11  1  6
  8 10  1  0
  9 10  1  0
 11 12  2  0
 11 13  1  0
  2  1  1  0
 21 20  1  0
 19 20  1  0
 19 21  1  0
 31 26  1  0
 31 30  2  0
 18 17  1  0
  8  9  1  0
  3  4  2  0
  3  2  1  0
 19 18  1  1
M  END
$$$$
