
     RDKit          3D

 19 20  0  0  0  0  0  0  0  0999 V2000
   37.9220   12.2590  -16.0360 O   0  0  0  0  0  0  0  0  0  0  0  0
   37.0630   12.8850  -15.4150 C   0  0  0  0  0  0  0  0  0  0  0  0
   37.3220   13.6270  -14.3770 O   0  0  0  0  0  0  0  0  0  0  0  0
   35.6180   12.8300  -15.7820 C   0  0  0  0  0  0  0  0  0  0  0  0
   35.1890   12.0570  -16.8500 C   0  0  0  0  0  0  0  0  0  0  0  0
   33.8530   12.0260  -17.2040 C   0  0  0  0  0  0  0  0  0  0  0  0
   32.8790   12.7310  -16.4860 C   0  0  0  0  0  0  0  0  0  0  0  0
   31.4640   12.5860  -16.9340 C   0  0  0  0  0  0  0  0  0  0  0  0
   30.7130   11.4590  -16.5930 C   0  0  0  0  0  0  0  0  0  0  0  0
   29.3930   11.3340  -16.9860 C   0  0  0  0  0  0  0  0  0  0  0  0
   28.8550   12.3240  -17.7720 C   0  0  0  0  0  0  0  0  0  0  0  0
   27.5710   12.2010  -18.1770 F   0  0  0  0  0  0  0  0  0  0  0  0
   29.5600   13.4210  -18.1740 C   0  0  0  0  0  0  0  0  0  0  0  0
   30.8690   13.5480  -17.7500 C   0  0  0  0  0  0  0  0  0  0  0  0
   33.3330   13.5220  -15.4100 C   0  0  0  0  0  0  0  0  0  0  0  0
   32.2560   14.5040  -14.3810 S   0  0  2  0  0  0  0  0  0  0  0  0
   31.0420   14.7970  -15.0650 O   0  0  0  0  0  0  0  0  0  0  0  0
   33.0080   15.5900  -13.8520 O   0  0  0  0  0  0  0  0  0  0  0  0
   34.6770   13.5500  -15.0520 C   0  0  0  0  0  0  0  0  0  0  0  0
  5  4  2  0
 19  4  1  0
  4  2  1  0
  6  5  1  0
  7  6  2  0
 10 11  2  0
  9 10  1  0
 13 11  1  0
 11 12  1  0
 14 13  2  0
  8 14  1  0
 15 19  2  0
  7 15  1  0
 16 15  1  6
  8  9  2  0
  8  7  1  0
  2  3  1  0
  2  1  2  0
 16 17  2  0
 16 18  2  0
M  END
$$$$
