
     RDKit          3D

 19 20  0  0  0  0  0  0  0  0999 V2000
   31.0203    4.2983  -13.4839 O   0  0  0  0  0  0  0  0  0  0  0  0
   31.2143    5.4991  -13.6635 C   0  0  0  0  0  0  0  0  0  0  0  0
   32.0259    6.0232  -14.5756 O   0  0  0  0  0  0  0  0  0  0  0  0
   30.7899    6.4845  -12.6217 C   0  0  0  0  0  0  0  0  0  0  0  0
   30.7874    7.8314  -12.9331 C   0  0  0  0  0  0  0  0  0  0  0  0
   30.7733    8.7775  -11.9229 C   0  0  0  0  0  0  0  0  0  0  0  0
   31.0308    8.4256  -10.5896 C   0  0  0  0  0  0  0  0  0  0  0  0
   31.8602    9.4093   -9.8030 C   0  0  0  0  0  0  0  0  0  0  0  0
   31.9741    9.2151   -8.4107 C   0  0  0  0  0  0  0  0  0  0  0  0
   32.2314   10.3005   -7.5530 C   0  0  0  0  0  0  0  0  0  0  0  0
   32.3618   11.5440   -8.1152 C   0  0  0  0  0  0  0  0  0  0  0  0
   32.4134   12.5997   -7.3368 F   0  0  0  0  0  0  0  0  0  0  0  0
   32.3334   11.7514   -9.4465 C   0  0  0  0  0  0  0  0  0  0  0  0
   32.1569   10.6586  -10.2916 C   0  0  0  0  0  0  0  0  0  0  0  0
   30.8164    7.0781  -10.2738 C   0  0  0  0  0  0  0  0  0  0  0  0
   30.4405    6.4258   -8.6514 S   0  0  2  0  0  0  0  0  0  0  0  0
   29.4994    5.4035   -8.6965 O   0  0  0  0  0  0  0  0  0  0  0  0
   30.1982    7.5837   -7.8155 O   0  0  0  0  0  0  0  0  0  0  0  0
   30.7804    6.1096  -11.2663 C   0  0  0  0  0  0  0  0  0  0  0  0
  5  4  4  0
 19  4  4  0
  4  2  1  0
  6  5  4  0
  7  6  4  0
 10 11  4  0
  9 10  4  0
 13 11  4  0
 11 12  1  0
 14 13  4  0
  8 14  4  0
 15 19  4  0
  7 15  4  0
 16 15  1  6
  8  9  4  0
  8  7  1  0
  2  3  1  0
  2  1  2  0
 16 17  2  0
 16 18  2  0
M  END
$$$$
