
     RDKit          3D

 32 34  0  0  0  0  0  0  0  0999 V2000
   15.3706  -11.8683   20.5248 O   0  0  0  0  0  0  0  0  0  0  0  0
   16.1132  -10.8742   20.6496 C   0  0  0  0  0  0  0  0  0  0  0  0
   15.6840   -9.6349   20.6167 N   0  0  0  0  0  0  0  0  0  0  0  0
   14.2052   -9.3100   20.5413 C   0  0  0  0  0  0  0  0  0  0  0  0
   13.5010   -9.4521   21.8521 C   0  0  0  0  0  0  0  0  0  0  0  0
   13.3018   -8.3696   22.6798 C   0  0  0  0  0  0  0  0  0  0  0  0
   12.3663   -8.3929   23.6919 C   0  0  0  0  0  0  0  0  0  0  0  0
   12.1990   -7.0835   24.7924 Cl  0  0  0  0  0  0  0  0  0  0  0  0
   11.6288   -9.5253   23.9116 C   0  0  0  0  0  0  0  0  0  0  0  0
   11.8116  -10.6374   23.1231 C   0  0  0  0  0  0  0  0  0  0  0  0
   12.8465  -10.6583   22.1436 C   0  0  0  0  0  0  0  0  0  0  0  0
   13.3924  -11.9933   21.7518 C   0  0  0  0  0  0  0  0  0  0  0  0
   12.5071  -13.0209   21.7831 O   0  0  0  0  0  0  0  0  0  0  0  0
   17.5543  -10.9964   20.9828 C   0  0  2  0  0  0  0  0  0  0  0  0
   18.4970  -10.7943   19.7741 C   0  0  0  0  0  0  0  0  0  0  0  0
   19.6972  -11.7414   20.0424 C   0  0  0  0  0  0  0  0  0  0  0  0
   19.0526  -12.9596   20.7332 C   0  0  0  0  0  0  0  0  0  0  0  0
   17.8561  -12.4054   21.3925 N   0  0  0  0  0  0  0  0  0  0  0  0
   17.2143  -12.9990   22.4044 C   0  0  0  0  0  0  0  0  0  0  0  0
   16.3201  -12.3963   23.0009 O   0  0  0  0  0  0  0  0  0  0  0  0
   17.3616  -14.4479   22.4727 C   0  0  0  0  0  0  0  0  0  0  0  0
   17.1582  -14.8889   23.8675 N   0  0  0  0  0  0  0  0  0  0  0  0
   17.5563  -16.4706   24.2366 S   0  0  2  0  0  0  0  0  0  0  0  0
   17.5907  -17.1837   23.0042 O   0  0  0  0  0  0  0  0  0  0  0  0
   16.5732  -16.8472   25.2487 O   0  0  0  0  0  0  0  0  0  0  0  0
   19.1732  -16.4824   24.9236 C   0  0  0  0  0  0  0  0  0  0  0  0
   19.7249  -15.0984   25.2606 C   0  0  0  0  0  0  0  0  0  0  0  0
   20.8950  -14.9827   25.8813 C   0  0  0  0  0  0  0  0  0  0  0  0
   21.6883  -13.8069   25.7908 C   0  0  0  0  0  0  0  0  0  0  0  0
   21.1672  -12.7572   25.0929 C   0  0  0  0  0  0  0  0  0  0  0  0
   19.9069  -12.8119   24.5044 C   0  0  0  0  0  0  0  0  0  0  0  0
   19.1843  -13.9864   24.6230 C   0  0  0  0  0  0  0  0  0  0  0  0
  5  6  4  0
  6  7  4  0
 10  9  4  0
  7  9  4  0
 11 10  4  0
 27 28  4  0
 28 29  4  0
 14 15  1  0
 14 18  1  0
 14  2  1  6
 15 16  1  0
 17 16  1  0
 11 12  1  0
 12 13  1  0
  5 11  4  0
  4  5  1  0
 26 27  1  0
 27 32  4  0
 23 26  1  1
 18 19  1  0
 19 21  1  0
 19 20  2  0
 18 17  1  0
 29 30  4  0
 31 30  4  0
 32 31  4  0
 23 24  2  0
 23 25  2  0
 22 23  1  0
 21 22  1  0
  2  1  2  0
  3  2  1  0
  3  4  1  0
  7  8  1  0
M  END
$$$$
