
     RDKit          3D

 32 34  0  0  0  0  0  0  0  0999 V2000
   15.7450  -12.4020   19.9730 O   0  0  0  0  0  0  0  0  0  0  0  0
   16.2490  -11.4090   20.5020 C   0  0  0  0  0  0  0  0  0  0  0  0
   15.5590  -10.3020   20.7910 N   0  0  0  0  0  0  0  0  0  0  0  0
   14.1500  -10.1470   20.4520 C   0  0  0  0  0  0  0  0  0  0  0  0
   13.2430  -10.1300   21.6600 C   0  0  0  0  0  0  0  0  0  0  0  0
   13.1730   -9.0040   22.4760 C   0  0  0  0  0  0  0  0  0  0  0  0
   12.2980   -8.9760   23.5390 C   0  0  0  0  0  0  0  0  0  0  0  0
   12.2430   -7.5630   24.5490 Cl  0  0  0  0  0  0  0  0  0  0  0  0
   11.4820  -10.0430   23.8240 C   0  0  0  0  0  0  0  0  0  0  0  0
   11.5550  -11.1690   23.0280 C   0  0  0  0  0  0  0  0  0  0  0  0
   12.4220  -11.2330   21.9400 C   0  0  0  0  0  0  0  0  0  0  0  0
   12.4390  -12.4610   21.0680 C   0  0  0  0  0  0  0  0  0  0  0  0
   13.2730  -13.4600   21.5930 O   0  0  0  0  0  0  0  0  0  0  0  0
   17.7390  -11.3690   20.8310 C   0  0  2  0  0  0  0  0  0  0  0  0
   18.5940  -11.2770   19.5620 C   0  0  0  0  0  0  0  0  0  0  0  0
   19.8650  -12.0360   19.9240 C   0  0  0  0  0  0  0  0  0  0  0  0
   19.3880  -13.1750   20.7920 C   0  0  0  0  0  0  0  0  0  0  0  0
   18.1760  -12.6330   21.4300 N   0  0  0  0  0  0  0  0  0  0  0  0
   17.5210  -13.1900   22.4590 C   0  0  0  0  0  0  0  0  0  0  0  0
   16.4880  -12.7140   22.9240 O   0  0  0  0  0  0  0  0  0  0  0  0
   18.1280  -14.4480   22.9920 C   0  0  0  0  0  0  0  0  0  0  0  0
   17.2020  -15.0350   23.9480 N   0  0  0  0  0  0  0  0  0  0  0  0
   17.6870  -16.3550   24.7870 S   0  0  2  0  0  0  0  0  0  0  0  0
   18.5970  -17.0700   23.9440 O   0  0  0  0  0  0  0  0  0  0  0  0
   16.4940  -17.0060   25.2350 O   0  0  0  0  0  0  0  0  0  0  0  0
   18.5910  -15.7800   26.2180 C   0  0  0  0  0  0  0  0  0  0  0  0
   19.7400  -14.8680   25.8800 C   0  0  0  0  0  0  0  0  0  0  0  0
   20.8910  -15.3680   25.2860 C   0  0  0  0  0  0  0  0  0  0  0  0
   21.8990  -14.5130   24.8680 C   0  0  0  0  0  0  0  0  0  0  0  0
   21.7720  -13.1510   25.0450 C   0  0  0  0  0  0  0  0  0  0  0  0
   20.6450  -12.6440   25.6590 C   0  0  0  0  0  0  0  0  0  0  0  0
   19.6370  -13.4970   26.0790 C   0  0  0  0  0  0  0  0  0  0  0  0
  5  6  2  0
  6  7  1  0
 10  9  1  0
  7  9  2  0
 11 10  2  0
 27 28  2  0
 28 29  1  0
 14 15  1  0
 14 18  1  0
 14  2  1  6
 15 16  1  0
 17 16  1  0
 11 12  1  0
 12 13  1  0
  5 11  1  0
  4  5  1  0
 26 27  1  0
 27 32  1  0
 23 26  1  1
 18 19  1  0
 19 21  1  0
 19 20  2  0
 18 17  1  0
 29 30  2  0
 31 30  1  0
 32 31  2  0
 23 24  2  0
 23 25  2  0
 22 23  1  0
 21 22  1  0
  2  1  2  0
  3  2  1  0
  3  4  1  0
  7  8  1  0
M  END
$$$$
