
     RDKit          3D

 68 73  0  0  0  0  0  0  0  0999 V2000
    1.2773  -25.2642  -25.9413 C   0  0  0  0  0  0  0  0  0  0  0  0
    2.5448  -25.2666  -25.1212 C   0  0  0  0  0  0  0  0  0  0  0  0
    3.6898  -25.2966  -25.5967 O   0  0  0  0  0  0  0  0  0  0  0  0
    2.3375  -25.2315  -23.7829 N   0  0  0  0  0  0  0  0  0  0  0  0
    3.4350  -25.5606  -22.8844 C   0  0  0  0  0  0  0  0  0  0  0  0
    3.1772  -24.9790  -21.4770 C   0  0  0  0  0  0  0  0  0  0  0  0
    3.4237  -25.9918  -20.4426 N   0  0  0  0  0  0  0  0  0  0  0  0
    4.2005  -25.5321  -19.3627 C   0  0  0  0  0  0  0  0  0  0  0  0
    3.6277  -25.8913  -18.0276 C   0  0  0  0  0  0  0  0  0  0  0  0
    2.4117  -26.6409  -17.9612 C   0  0  0  0  0  0  0  0  0  0  0  0
    1.4310  -26.2867  -17.0741 C   0  0  0  0  0  0  0  0  0  0  0  0
    0.3736  -27.2840  -16.7137 C   0  0  0  0  0  0  0  0  0  0  0  0
    1.6397  -25.1764  -16.2958 C   0  0  0  0  0  0  0  0  0  0  0  0
    0.4457  -24.6080  -15.9090 O   0  0  0  0  0  0  0  0  0  0  0  0
   -0.6083  -24.5516  -16.8349 C   0  0  0  0  0  0  0  0  0  0  0  0
   -1.9077  -24.4682  -16.0730 C   0  0  0  0  0  0  0  0  0  0  0  0
   -3.0847  -24.4425  -16.7655 C   0  0  0  0  0  0  0  0  0  0  0  0
   -4.3130  -24.4209  -16.1059 C   0  0  0  0  0  0  0  0  0  0  0  0
   -4.3360  -24.3965  -14.6841 C   0  0  0  0  0  0  0  0  0  0  0  0
   -3.1192  -24.3215  -14.0274 C   0  0  0  0  0  0  0  0  0  0  0  0
   -3.1821  -24.4806  -12.5450 C   0  0  0  0  0  0  0  0  0  0  0  0
   -4.3686  -24.9506  -11.9966 C   0  0  0  0  0  0  0  0  0  0  0  0
   -4.3557  -25.9713  -11.0635 C   0  0  0  0  0  0  0  0  0  0  0  0
   -3.1733  -26.3438  -10.4801 C   0  0  0  0  0  0  0  0  0  0  0  0
   -1.9432  -25.9483  -11.0197 C   0  0  0  0  0  0  0  0  0  0  0  0
   -0.8549  -26.9088  -11.1684 C   0  0  0  0  0  0  0  0  0  0  0  0
   -0.8630  -27.7425  -10.0431 O   0  0  0  0  0  0  0  0  0  0  0  0
   -1.1664  -27.1542   -8.8267 C   0  0  0  0  0  0  0  0  0  0  0  0
   -1.4973  -27.8475   -7.6922 C   0  0  0  0  0  0  0  0  0  0  0  0
   -1.9325  -27.1455   -6.5996 C   0  0  0  0  0  0  0  0  0  0  0  0
   -2.3581  -27.8020   -5.4531 O   0  0  0  0  0  0  0  0  0  0  0  0
   -2.5704  -26.9412   -4.3235 C   0  0  0  0  0  0  0  0  0  0  0  0
   -1.3084  -27.0477   -3.4663 C   0  0  0  0  0  0  0  0  0  0  0  0
   -0.2689  -26.1415   -3.6707 C   0  0  0  0  0  0  0  0  0  0  0  0
    1.0011  -26.4545   -3.6089 N   0  0  0  0  0  0  0  0  0  0  0  0
    1.3128  -27.7045   -3.2025 C   0  0  0  0  0  0  0  0  0  0  0  0
    0.3773  -28.6239   -2.7851 C   0  0  0  0  0  0  0  0  0  0  0  0
    0.7358  -29.8616   -2.2423 C   0  0  0  0  0  0  0  0  0  0  0  0
    0.7617  -30.6576   -1.2944 N   0  0  0  0  0  0  0  0  0  0  0  0
   -0.9823  -28.2055   -2.8111 C   0  0  0  0  0  0  0  0  0  0  0  0
   -2.1907  -25.7846   -6.6609 C   0  0  0  0  0  0  0  0  0  0  0  0
   -3.1303  -25.1366   -5.6862 C   0  0  0  0  0  0  0  0  0  0  0  0
   -4.0831  -26.0832   -5.0805 N   0  0  0  0  0  0  0  0  0  0  0  0
   -3.6351  -27.4495   -5.1286 C   0  0  0  0  0  0  0  0  0  0  0  0
   -3.2245  -27.9066   -3.7197 C   0  0  0  0  0  0  0  0  0  0  0  0
   -3.6392  -26.9709   -2.7452 N   0  0  0  0  0  0  0  0  0  0  0  0
   -4.8279  -26.4783   -2.6579 C   0  0  0  0  0  0  0  0  0  0  0  0
   -5.0556  -25.2750   -1.7695 C   0  0  0  0  0  0  0  0  0  0  0  0
   -5.8253  -27.1441   -2.9915 O   0  0  0  0  0  0  0  0  0  0  0  0
   -1.7069  -25.0948   -7.7360 C   0  0  0  0  0  0  0  0  0  0  0  0
   -1.2220  -25.7345   -8.8591 C   0  0  0  0  0  0  0  0  0  0  0  0
   -0.7117  -24.9919  -10.0689 C   0  0  0  0  0  0  0  0  0  0  0  0
   -1.9836  -24.7229  -11.8179 C   0  0  0  0  0  0  0  0  0  0  0  0
   -0.6659  -24.0814  -12.2925 C   0  0  0  0  0  0  0  0  0  0  0  0
   -1.9130  -24.3241  -14.7101 C   0  0  0  0  0  0  0  0  0  0  0  0
   -0.6072  -24.4117  -13.9383 C   0  0  0  0  0  0  0  0  0  0  0  0
    2.8593  -24.5336  -16.2013 C   0  0  0  0  0  0  0  0  0  0  0  0
    3.9392  -25.1281  -16.8848 C   0  0  0  0  0  0  0  0  0  0  0  0
    5.1080  -25.4923  -16.2748 O   0  0  0  0  0  0  0  0  0  0  0  0
    5.0727  -26.6838  -15.5407 C   0  0  0  0  0  0  0  0  0  0  0  0
    5.9465  -26.5013  -14.3177 C   0  0  0  0  0  0  0  0  0  0  0  0
    5.9634  -25.3469  -13.5941 C   0  0  0  0  0  0  0  0  0  0  0  0
    6.0942  -25.2960  -12.2837 N   0  0  0  0  0  0  0  0  0  0  0  0
    6.3857  -26.4073  -11.6376 C   0  0  0  0  0  0  0  0  0  0  0  0
    6.5139  -27.6422  -12.2790 C   0  0  0  0  0  0  0  0  0  0  0  0
    6.6574  -28.8367  -11.5418 C   0  0  0  0  0  0  0  0  0  0  0  0
    6.8993  -30.0478  -11.4890 N   0  0  0  0  0  0  0  0  0  0  0  0
    6.3889  -27.6123  -13.6667 C   0  0  0  0  0  0  0  0  0  0  0  0
  8  7  1  0
  7  6  1  0
 66 67  3  0
  9  8  1  0
 58  9  4  0
  9 10  4  0
 57 58  4  0
 58 59  1  0
 60 61  1  0
 59 60  1  0
 61 68  4  0
 61 62  4  0
 65 64  4  0
 63 64  4  0
 65 66  1  0
 13 57  4  0
 14 13  1  0
 13 11  4  0
  4  2  1  0
  2  1  1  0
  2  3  2  0
 68 65  4  0
 15 14  1  0
 16 15  1  0
  6  5  1  0
  5  4  1  0
 62 63  4  0
 27 26  1  0
 28 27  1  0
 16 17  4  0
 55 16  4  0
 18 17  4  0
 19 18  4  0
 20 19  4  0
 20 55  4  0
 21 20  1  0
 55 56  1  0
 21 22  4  0
 53 21  4  0
 23 22  4  0
 24 23  4  0
 25 24  4  0
 25 53  4  0
 26 25  1  0
 53 54  1  0
 29 28  4  0
 28 51  4  0
 30 29  4  0
 30 41  4  0
 31 30  1  0
 41 42  1  0
 41 50  4  0
 42 43  1  0
 44 45  1  0
 43 44  1  0
 45 46  1  0
 47 48  1  0
 46 47  1  0
 47 49  2  0
 50 51  4  0
 51 52  1  0
 33 32  1  0
 32 31  1  0
 34 33  4  0
 33 40  4  0
 35 34  4  0
 36 37  4  0
 36 35  4  0
 37 40  4  0
 37 38  1  0
 38 39  3  0
 11 10  4  0
 11 12  1  0
M  CHG  2   7   1  43   1
M  END
$$$$
