
     RDKit          3D

 68 73  0  0  0  0  0  0  0  0999 V2000
   -5.4890  -30.0400   -2.1520 C   0  0  0  0  0  0  0  0  0  0  0  0
   -4.8170  -30.2230   -3.4770 C   0  0  0  0  0  0  0  0  0  0  0  0
   -4.0120  -31.1240   -3.6780 O   0  0  0  0  0  0  0  0  0  0  0  0
   -5.1350  -29.3420   -4.4220 N   0  0  0  0  0  0  0  0  0  0  0  0
   -4.1270  -28.6490   -5.2040 C   0  0  0  0  0  0  0  0  0  0  0  0
   -2.7480  -28.9530   -4.6700 C   0  0  0  0  0  0  0  0  0  0  0  0
   -1.7520  -28.1000   -5.3090 N   0  0  0  0  0  0  0  0  0  0  0  0
   -2.1700  -26.7080   -5.3710 C   0  0  0  0  0  0  0  0  0  0  0  0
   -2.3950  -26.2270   -6.7780 C   0  0  0  0  0  0  0  0  0  0  0  0
   -3.4680  -25.4130   -7.0930 C   0  0  0  0  0  0  0  0  0  0  0  0
   -3.6970  -24.9610   -8.3820 C   0  0  0  0  0  0  0  0  0  0  0  0
   -4.8470  -24.0480   -8.6890 C   0  0  0  0  0  0  0  0  0  0  0  0
   -2.8200  -25.3620   -9.3720 C   0  0  0  0  0  0  0  0  0  0  0  0
   -3.1430  -24.8870  -10.6050 O   0  0  0  0  0  0  0  0  0  0  0  0
   -2.2000  -25.0740  -11.6450 C   0  0  0  0  0  0  0  0  0  0  0  0
   -2.7510  -24.4820  -12.9100 C   0  0  0  0  0  0  0  0  0  0  0  0
   -3.3500  -23.2310  -12.8890 C   0  0  0  0  0  0  0  0  0  0  0  0
   -3.8270  -22.6600  -14.0470 C   0  0  0  0  0  0  0  0  0  0  0  0
   -3.7180  -23.3300  -15.2450 C   0  0  0  0  0  0  0  0  0  0  0  0
   -3.1260  -24.5870  -15.2860 C   0  0  0  0  0  0  0  0  0  0  0  0
   -3.0230  -25.2920  -16.5950 C   0  0  0  0  0  0  0  0  0  0  0  0
   -4.0000  -26.2240  -16.9140 C   0  0  0  0  0  0  0  0  0  0  0  0
   -3.9590  -26.8790  -18.1240 C   0  0  0  0  0  0  0  0  0  0  0  0
   -2.9540  -26.6060  -19.0230 C   0  0  0  0  0  0  0  0  0  0  0  0
   -1.9680  -25.6770  -18.7260 C   0  0  0  0  0  0  0  0  0  0  0  0
   -0.9200  -25.3800  -19.7590 C   0  0  0  0  0  0  0  0  0  0  0  0
   -1.4880  -25.6910  -21.0270 O   0  0  0  0  0  0  0  0  0  0  0  0
   -0.8360  -25.2190  -22.1230 C   0  0  0  0  0  0  0  0  0  0  0  0
    0.4860  -24.8510  -22.1110 C   0  0  0  0  0  0  0  0  0  0  0  0
    1.0750  -24.3830  -23.2600 C   0  0  0  0  0  0  0  0  0  0  0  0
    2.3750  -23.9920  -23.3240 O   0  0  0  0  0  0  0  0  0  0  0  0
    2.7670  -22.9370  -22.4540 C   0  0  0  0  0  0  0  0  0  0  0  0
    4.2580  -22.9550  -22.3920 C   0  0  0  0  0  0  0  0  0  0  0  0
    4.9890  -23.9840  -22.9560 C   0  0  0  0  0  0  0  0  0  0  0  0
    6.3220  -24.0610  -22.9430 N   0  0  0  0  0  0  0  0  0  0  0  0
    6.9850  -23.0740  -22.3430 C   0  0  0  0  0  0  0  0  0  0  0  0
    6.3570  -21.9880  -21.7480 C   0  0  0  0  0  0  0  0  0  0  0  0
    7.1050  -20.9300  -21.1250 C   0  0  0  0  0  0  0  0  0  0  0  0
    7.6700  -20.0770  -20.6210 N   0  0  0  0  0  0  0  0  0  0  0  0
    4.9710  -21.9390  -21.7770 C   0  0  0  0  0  0  0  0  0  0  0  0
    0.3510  -24.2740  -24.4420 C   0  0  0  0  0  0  0  0  0  0  0  0
    0.9950  -23.7450  -25.6970 C   0  0  0  0  0  0  0  0  0  0  0  0
    1.3570  -22.3320  -25.6270 N   0  0  0  0  0  0  0  0  0  0  0  0
    0.1900  -21.4530  -25.5970 C   0  0  0  0  0  0  0  0  0  0  0  0
   -0.5610  -21.5090  -26.9070 C   0  0  0  0  0  0  0  0  0  0  0  0
    0.2190  -20.9290  -27.9860 N   0  0  0  0  0  0  0  0  0  0  0  0
    0.9850  -19.8550  -27.8170 C   0  0  0  0  0  0  0  0  0  0  0  0
    0.7280  -18.7110  -28.7470 C   0  0  0  0  0  0  0  0  0  0  0  0
    1.8500  -19.8050  -26.9500 O   0  0  0  0  0  0  0  0  0  0  0  0
   -0.9800  -24.6570  -24.4250 C   0  0  0  0  0  0  0  0  0  0  0  0
   -1.5980  -25.1300  -23.2780 C   0  0  0  0  0  0  0  0  0  0  0  0
   -3.0460  -25.5250  -23.2880 C   0  0  0  0  0  0  0  0  0  0  0  0
   -1.9820  -25.0150  -17.4950 C   0  0  0  0  0  0  0  0  0  0  0  0
   -0.8780  -24.0550  -17.1400 C   0  0  0  0  0  0  0  0  0  0  0  0
   -2.6380  -25.1800  -14.1150 C   0  0  0  0  0  0  0  0  0  0  0  0
   -2.0050  -26.5450  -14.1420 C   0  0  0  0  0  0  0  0  0  0  0  0
   -1.7420  -26.1710   -9.0920 C   0  0  0  0  0  0  0  0  0  0  0  0
   -1.5280  -26.5930   -7.8000 C   0  0  0  0  0  0  0  0  0  0  0  0
   -0.4660  -27.3560   -7.4200 O   0  0  0  0  0  0  0  0  0  0  0  0
    0.6030  -27.4780   -8.3490 C   0  0  0  0  0  0  0  0  0  0  0  0
    1.7090  -28.2530   -7.7070 C   0  0  0  0  0  0  0  0  0  0  0  0
    2.3300  -27.8030   -6.5580 C   0  0  0  0  0  0  0  0  0  0  0  0
    3.3370  -28.4310   -5.9450 N   0  0  0  0  0  0  0  0  0  0  0  0
    3.7620  -29.5710   -6.4810 C   0  0  0  0  0  0  0  0  0  0  0  0
    3.2070  -30.1260   -7.6230 C   0  0  0  0  0  0  0  0  0  0  0  0
    3.6460  -31.4000   -8.1310 C   0  0  0  0  0  0  0  0  0  0  0  0
    4.0090  -32.4150   -8.5050 N   0  0  0  0  0  0  0  0  0  0  0  0
    2.1670  -29.4460   -8.2430 C   0  0  0  0  0  0  0  0  0  0  0  0
  8  7  1  0
  7  6  1  0
 66 67  3  0
  9  8  1  0
 58  9  2  0
  9 10  1  0
 57 58  1  0
 58 59  1  0
 60 61  1  0
 59 60  1  0
 61 68  2  0
 61 62  1  0
 65 64  2  0
 63 64  1  0
 65 66  1  0
 13 57  2  0
 14 13  1  0
 13 11  1  0
  4  2  1  0
  2  1  1  0
  2  3  2  0
 68 65  1  0
 15 14  1  0
 16 15  1  0
  6  5  1  0
  5  4  1  0
 62 63  2  0
 27 26  1  0
 28 27  1  0
 16 17  2  0
 55 16  1  0
 18 17  1  0
 19 18  2  0
 20 19  1  0
 20 55  2  0
 21 20  1  0
 55 56  1  0
 21 22  2  0
 53 21  1  0
 23 22  1  0
 24 23  2  0
 25 24  1  0
 25 53  2  0
 26 25  1  0
 53 54  1  0
 29 28  2  0
 28 51  1  0
 30 29  1  0
 30 41  2  0
 31 30  1  0
 41 42  1  0
 41 50  1  0
 42 43  1  0
 44 45  1  0
 43 44  1  0
 45 46  1  0
 47 48  1  0
 46 47  1  0
 47 49  2  0
 50 51  2  0
 51 52  1  0
 33 32  1  0
 32 31  1  0
 34 33  2  0
 33 40  1  0
 35 34  1  0
 36 37  1  0
 36 35  2  0
 37 40  2  0
 37 38  1  0
 38 39  3  0
 11 10  2  0
 11 12  1  0
M  CHG  2   7   1  43   1
M  END
$$$$
