
     RDKit          3D

 79 80  0  0  0  0  0  0  0  0999 V2000
    7.8776    0.0243   25.7492 C   0  0  0  0  0  0  0  0  0  0  0  0
    6.6691    0.8548   25.3163 C   0  0  2  0  0  0  0  0  0  0  0  0
    6.7732    2.2837   25.6402 C   0  0  0  0  0  0  0  0  0  0  0  0
    5.3020    0.2398   25.7828 C   0  0  0  0  0  0  0  0  0  0  0  0
    4.0452    1.1072   25.6886 C   0  0  1  0  0  0  0  0  0  0  0  0
    4.2217    2.2447   24.7987 N   0  0  0  0  0  0  0  0  0  0  0  0
    2.8053    0.2957   25.3076 C   0  0  0  0  0  0  0  0  0  0  0  0
    1.6517    0.8487   25.3434 O   0  0  0  0  0  0  0  0  0  0  0  0
    2.9486   -1.0894   25.2665 N   0  0  0  0  0  0  0  0  0  0  0  0
    4.2255   -1.7679   25.3112 C   0  0  2  0  0  0  0  0  0  0  0  0
    5.3869   -0.8529   25.0655 C   0  0  0  0  0  0  0  0  0  0  0  0
    5.4055   -0.2067   23.7926 O   0  0  0  0  0  0  0  0  0  0  0  0
    4.2627   -2.9594   24.3515 C   0  0  0  0  0  0  0  0  0  0  0  0
    3.2462   -3.6810   24.1511 O   0  0  0  0  0  0  0  0  0  0  0  0
    5.4928   -3.3725   23.9720 N   0  0  0  0  0  0  0  0  0  0  0  0
    6.7253   -2.7198   24.3523 C   0  0  2  0  0  0  0  0  0  0  0  0
    6.7721   -2.2816   25.8595 C   0  0  0  0  0  0  0  0  0  0  0  0
    5.7078   -2.0515   26.3946 O   0  0  0  0  0  0  0  0  0  0  0  0
    7.9714   -2.1642   26.4591 N   0  0  0  0  0  0  0  0  0  0  0  0
    8.9492   -3.2967   26.5198 C   0  0  2  0  0  0  0  0  0  0  0  0
    8.7336   -4.1514   27.7932 C   0  0  0  0  0  0  0  0  0  0  0  0
    8.3809   -3.4079   29.0729 C   0  0  0  0  0  0  0  0  0  0  0  0
    8.7042   -1.9166   29.0600 C   0  0  0  0  0  0  0  0  0  0  0  0
    9.4207   -1.4929   30.0111 O   0  0  0  0  0  0  0  0  0  0  0  0
    8.4489   -1.2868   28.0061 O   0  0  0  0  0  0  0  0  0  0  0  0
   10.3948   -2.7832   26.3877 C   0  0  0  0  0  0  0  0  0  0  0  0
   11.1348   -2.9306   27.3689 O   0  0  0  0  0  0  0  0  0  0  0  0
   10.8690   -2.5882   25.1447 N   0  0  0  0  0  0  0  0  0  0  0  0
   10.1066   -3.0659   23.9824 C   0  0  1  0  0  0  0  0  0  0  0  0
   11.0088   -3.8030   22.9746 C   0  0  0  0  0  0  0  0  0  0  0  0
   10.9103   -5.3108   22.7877 C   0  0  1  0  0  0  0  0  0  0  0  0
   11.7324   -5.8558   21.6757 C   0  0  0  0  0  0  0  0  0  0  0  0
   11.3080   -5.9378   24.0734 C   0  0  0  0  0  0  0  0  0  0  0  0
    8.9027   -3.9236   24.3893 C   0  0  0  0  0  0  0  0  0  0  0  0
    9.0365   -5.1371   24.4071 O   0  0  0  0  0  0  0  0  0  0  0  0
    8.0833   -3.3508   25.2274 N   0  0  0  0  0  0  0  0  0  0  0  0
    7.8005   -3.8350   26.5842 C   0  0  1  0  0  0  0  0  0  0  0  0
    6.9504   -2.8398   27.3487 C   0  0  0  0  0  0  0  0  0  0  0  0
    5.5320   -3.1020   27.1806 O   0  0  0  0  0  0  0  0  0  0  0  0
    7.1567   -5.1996   26.5963 C   0  0  0  0  0  0  0  0  0  0  0  0
    7.3434   -5.9549   27.5184 O   0  0  0  0  0  0  0  0  0  0  0  0
    6.1174   -5.3688   25.7272 N   0  0  0  0  0  0  0  0  0  0  0  0
    5.6463   -4.3426   24.7949 C   0  0  1  0  0  0  0  0  0  0  0  0
    6.5891   -4.3095   23.5933 C   0  0  0  0  0  0  0  0  0  0  0  0
    6.2236   -3.6766   22.5312 O   0  0  0  0  0  0  0  0  0  0  0  0
    7.8803   -4.5432   23.8198 N   0  0  0  0  0  0  0  0  0  0  0  0
    8.5953   -5.6804   23.1961 C   0  0  1  0  0  0  0  0  0  0  0  0
    9.3723   -6.4546   24.2982 C   0  0  0  0  0  0  0  0  0  0  0  0
    8.9180   -6.3209   25.7482 C   0  0  0  0  0  0  0  0  0  0  0  0
    9.9859   -6.1465   26.7994 C   0  0  0  0  0  0  0  0  0  0  0  0
    9.6128   -6.1702   28.0084 O   0  0  0  0  0  0  0  0  0  0  0  0
   11.1608   -6.1402   26.4909 O   0  0  0  0  0  0  0  0  0  0  0  0
    7.5918   -6.5758   22.4548 C   0  0  0  0  0  0  0  0  0  0  0  0
    6.7053   -7.1253   23.1716 O   0  0  0  0  0  0  0  0  0  0  0  0
    7.3919   -6.3342   21.1366 N   0  0  0  0  0  0  0  0  0  0  0  0
    7.8455   -7.1567   20.0399 C   0  0  0  0  0  0  0  0  0  0  0  0
    7.1481   -6.6136   18.8194 C   0  0  0  0  0  0  0  0  0  0  0  0
    5.9261   -5.9513   19.3126 C   0  0  0  0  0  0  0  0  0  0  0  0
    6.2923   -5.3953   20.7181 C   0  0  1  0  0  0  0  0  0  0  0  0
    5.1457   -5.3421   21.6853 C   0  0  0  0  0  0  0  0  0  0  0  0
    4.8862   -4.2211   22.1751 O   0  0  0  0  0  0  0  0  0  0  0  0
    4.2453   -6.3526   21.7635 N   0  0  0  0  0  0  0  0  0  0  0  0
    3.6745   -7.1908   20.6179 C   0  0  0  0  0  0  0  0  0  0  0  0
    2.2155   -7.2750   20.9925 C   0  0  0  0  0  0  0  0  0  0  0  0
    2.1959   -7.3521   22.4772 C   0  0  0  0  0  0  0  0  0  0  0  0
    3.4402   -6.5485   22.9554 C   0  0  1  0  0  0  0  0  0  0  0  0
    4.1718   -7.3199   24.0828 C   0  0  0  0  0  0  0  0  0  0  0  0
    3.6549   -7.3937   25.2451 O   0  0  0  0  0  0  0  0  0  0  0  0
    5.3737   -7.4956   23.9879 O   0  0  0  0  0  0  0  0  0  0  0  0
    4.2120   -4.7461   24.2868 C   0  0  2  0  0  0  0  0  0  0  0  0
    3.8460   -4.0707   22.9265 C   0  0  0  0  0  0  0  0  0  0  0  0
    3.2309   -4.2842   25.2979 O   0  0  0  0  0  0  0  0  0  0  0  0
    3.7151   -3.8499   26.7297 P   0  0  2  0  0  0  0  0  0  0  0  0
    3.7653   -2.3901   26.9577 O   0  0  0  0  0  0  0  0  0  0  0  0
    5.1316   -4.4643   26.8259 O   0  0  0  0  0  0  0  0  0  0  0  0
    2.7988   -4.4169   27.7467 O   0  0  0  0  0  0  0  0  0  0  0  0
    7.0430   -1.5219   23.4037 C   0  0  2  0  0  0  0  0  0  0  0  0
    6.2949   -1.6222   22.0536 C   0  0  0  0  0  0  0  0  0  0  0  0
    8.4328   -1.4642   23.1634 O   0  0  0  0  0  0  0  0  0  0  0  0
  5  6  1  1
  5  7  1  0
  5  4  1  0
  7  8  2  0
  7  9  1  0
  4  2  1  0
  2  1  1  6
  2  3  1  0
  9 10  1  0
 10 13  1  0
 10 11  1  1
 13 14  2  0
 13 15  1  0
 11 12  1  0
 16 15  1  6
 16 17  1  0
 16 77  1  0
 17 18  2  0
 17 19  1  0
 77 79  1  0
 77 78  1  1
 19 20  1  0
 20 26  1  0
 20 21  1  6
 26 27  2  0
 26 28  1  0
 21 22  1  0
 22 23  1  0
 23 24  2  0
 23 25  1  0
 28 29  1  0
 29 34  1  0
 29 30  1  6
 34 35  2  0
 34 36  1  0
 30 31  1  0
 31 32  1  6
 31 33  1  0
 36 37  1  0
 37 40  1  0
 37 38  1  6
 40 41  2  0
 40 42  1  0
 38 39  1  0
 43 42  1  6
 43 70  1  0
 43 44  1  0
 70 71  1  1
 70 72  1  0
 72 73  1  0
 73 75  1  6
 73 76  1  0
 73 74  2  0
 44 45  2  0
 44 46  1  0
 46 47  1  0
 47 53  1  0
 47 48  1  1
 53 54  2  0
 53 55  1  0
 48 49  1  0
 49 50  1  0
 50 51  2  0
 50 52  1  0
 55 59  1  0
 55 56  1  0
 59 60  1  1
 59 58  1  0
 60 61  2  0
 60 62  1  0
 58 57  1  0
 57 56  1  0
 62 66  1  0
 62 63  1  0
 66 67  1  1
 66 65  1  0
 67 69  1  0
 67 68  2  0
 65 64  1  0
 64 63  1  0
M  CHG  1   6   1
M  END
$$$$
