
     RDKit          3D

 79 80  0  0  0  0  0  0  0  0999 V2000
   -2.1750    0.8020   -2.0340 C   0  0  0  0  0  0  0  0  0  0  0  0
   -1.4410    1.8030   -1.1400 C   0  0  1  0  0  0  0  0  0  0  0  0
   -0.9850    1.1720    0.1440 C   0  0  0  0  0  0  0  0  0  0  0  0
   -0.2550    2.4640   -1.8630 C   0  0  0  0  0  0  0  0  0  0  0  0
   -0.5230    3.6630   -2.8010 C   0  0  2  0  0  0  0  0  0  0  0  0
    0.7320    4.3550   -3.0940 N   0  0  0  0  0  0  0  0  0  0  0  0
   -1.5950    4.6200   -2.2300 C   0  0  0  0  0  0  0  0  0  0  0  0
   -1.2640    5.4950   -1.4240 O   0  0  0  0  0  0  0  0  0  0  0  0
   -2.8790    4.4350   -2.6570 N   0  0  0  0  0  0  0  0  0  0  0  0
   -4.0340    5.2370   -2.2390 C   0  0  1  0  0  0  0  0  0  0  0  0
   -5.3020    4.8310   -2.9920 C   0  0  0  0  0  0  0  0  0  0  0  0
   -5.9740    3.7260   -2.4090 O   0  0  0  0  0  0  0  0  0  0  0  0
   -4.2610    5.1900   -0.7340 C   0  0  0  0  0  0  0  0  0  0  0  0
   -4.0170    4.1600   -0.1020 O   0  0  0  0  0  0  0  0  0  0  0  0
   -4.7280    6.3120   -0.1730 N   0  0  0  0  0  0  0  0  0  0  0  0
   -4.9760    6.4770    1.2600 C   0  0  2  0  0  0  0  0  0  0  0  0
   -6.4030    6.0530    1.6770 C   0  0  0  0  0  0  0  0  0  0  0  0
   -6.7100    6.0620    2.8760 O   0  0  0  0  0  0  0  0  0  0  0  0
   -7.2570    5.6680    0.7040 N   0  0  0  0  0  0  0  0  0  0  0  0
   -8.6450    5.3090    0.9960 C   0  0  1  0  0  0  0  0  0  0  0  0
   -9.5390    5.3310   -0.2710 C   0  0  0  0  0  0  0  0  0  0  0  0
   -9.2580    4.2720   -1.3320 C   0  0  0  0  0  0  0  0  0  0  0  0
  -10.1340    4.4020   -2.5680 C   0  0  0  0  0  0  0  0  0  0  0  0
  -10.2450    5.5350   -3.0880 O   0  0  0  0  0  0  0  0  0  0  0  0
  -10.7010    3.3820   -3.0260 O   0  0  0  0  0  0  0  0  0  0  0  0
   -8.8030    3.9860    1.7730 C   0  0  0  0  0  0  0  0  0  0  0  0
   -9.6670    3.9130    2.6550 O   0  0  0  0  0  0  0  0  0  0  0  0
   -7.9850    2.9640    1.4680 N   0  0  0  0  0  0  0  0  0  0  0  0
   -8.0790    1.6650    2.1390 C   0  0  1  0  0  0  0  0  0  0  0  0
   -7.4410    0.5630    1.2750 C   0  0  0  0  0  0  0  0  0  0  0  0
   -8.0280   -0.8480    1.3430 C   0  0  1  0  0  0  0  0  0  0  0  0
   -9.5090   -0.8720    0.9710 C   0  0  0  0  0  0  0  0  0  0  0  0
   -7.2990   -1.7690    0.3850 C   0  0  0  0  0  0  0  0  0  0  0  0
   -7.4880    1.7290    3.5540 C   0  0  0  0  0  0  0  0  0  0  0  0
   -6.3530    2.1450    3.7450 O   0  0  0  0  0  0  0  0  0  0  0  0
   -8.2950    1.3870    4.5490 N   0  0  0  0  0  0  0  0  0  0  0  0
   -7.9050    1.4420    5.9520 C   0  0  1  0  0  0  0  0  0  0  0  0
   -9.1380    1.6260    6.8400 C   0  0  0  0  0  0  0  0  0  0  0  0
   -8.8040    1.7500    8.2130 O   0  0  0  0  0  0  0  0  0  0  0  0
   -7.1230    0.1990    6.3660 C   0  0  0  0  0  0  0  0  0  0  0  0
   -7.4150   -0.9010    5.9030 O   0  0  0  0  0  0  0  0  0  0  0  0
   -6.1370    0.3840    7.2540 N   0  0  0  0  0  0  0  0  0  0  0  0
   -5.3050   -0.6850    7.8220 C   0  0  2  0  0  0  0  0  0  0  0  0
   -6.1660   -1.5470    8.7470 C   0  0  0  0  0  0  0  0  0  0  0  0
   -5.9510   -2.7540    8.8510 O   0  0  0  0  0  0  0  0  0  0  0  0
   -7.1400   -0.9130    9.4150 N   0  0  0  0  0  0  0  0  0  0  0  0
   -8.0610   -1.5820   10.3270 C   0  0  1  0  0  0  0  0  0  0  0  0
   -8.4070   -0.6890   11.5440 C   0  0  0  0  0  0  0  0  0  0  0  0
   -7.2080   -0.1730   12.3350 C   0  0  0  0  0  0  0  0  0  0  0  0
   -6.1790   -1.1890   12.8100 C   0  0  0  0  0  0  0  0  0  0  0  0
   -6.5940   -2.2400   13.3570 O   0  0  0  0  0  0  0  0  0  0  0  0
   -4.9590   -0.9180   12.6630 O   0  0  0  0  0  0  0  0  0  0  0  0
   -9.3150   -2.0220    9.5820 C   0  0  0  0  0  0  0  0  0  0  0  0
   -9.8320   -1.2350    8.7880 O   0  0  0  0  0  0  0  0  0  0  0  0
   -9.8040   -3.2730    9.7940 N   0  0  0  0  0  0  0  0  0  0  0  0
   -9.2780   -4.3240   10.6880 C   0  0  0  0  0  0  0  0  0  0  0  0
  -10.3990   -5.3150   10.7550 C   0  0  0  0  0  0  0  0  0  0  0  0
  -11.1170   -5.2120    9.4710 C   0  0  0  0  0  0  0  0  0  0  0  0
  -11.0140   -3.7350    9.0780 C   0  0  1  0  0  0  0  0  0  0  0  0
  -12.2940   -2.9670    9.4250 C   0  0  0  0  0  0  0  0  0  0  0  0
  -12.3300   -2.3160   10.4730 O   0  0  0  0  0  0  0  0  0  0  0  0
  -13.3540   -3.0140    8.5730 N   0  0  0  0  0  0  0  0  0  0  0  0
  -13.4980   -3.7530    7.3030 C   0  0  0  0  0  0  0  0  0  0  0  0
  -14.5870   -3.0200    6.6030 C   0  0  0  0  0  0  0  0  0  0  0  0
  -15.4770   -2.4800    7.6590 C   0  0  0  0  0  0  0  0  0  0  0  0
  -14.5970   -2.2830    8.9030 C   0  0  1  0  0  0  0  0  0  0  0  0
  -15.2980   -2.7860   10.1630 C   0  0  0  0  0  0  0  0  0  0  0  0
  -16.0270   -2.0360   10.8040 O   0  0  0  0  0  0  0  0  0  0  0  0
  -15.1350   -3.9420   10.5400 O   0  0  0  0  0  0  0  0  0  0  0  0
   -4.1390   -0.0460    8.6410 C   0  0  1  0  0  0  0  0  0  0  0  0
   -3.0970   -1.0860    9.1600 C   0  0  0  0  0  0  0  0  0  0  0  0
   -3.4220    0.9090    7.7980 O   0  0  0  0  0  0  0  0  0  0  0  0
   -3.5050    2.4330    8.1380 P   0  0  1  0  0  0  0  0  0  0  0  0
   -3.3920    2.7320    9.5860 O   0  0  0  0  0  0  0  0  0  0  0  0
   -2.3750    3.0770    7.3390 O   0  0  0  0  0  0  0  0  0  0  0  0
   -4.8530    2.9580    7.7380 O   0  0  0  0  0  0  0  0  0  0  0  0
   -4.6220    7.9230    1.6900 C   0  0  1  0  0  0  0  0  0  0  0  0
   -5.5600    8.9860    1.0830 C   0  0  0  0  0  0  0  0  0  0  0  0
   -4.6130    8.0020    3.1190 O   0  0  0  0  0  0  0  0  0  0  0  0
  5  6  1  1
  5  7  1  0
  5  4  1  0
  7  8  2  0
  7  9  1  0
  4  2  1  0
  2  1  1  6
  2  3  1  0
  9 10  1  0
 10 13  1  0
 10 11  1  6
 13 14  2  0
 13 15  1  0
 11 12  1  0
 16 15  1  6
 16 17  1  0
 16 77  1  0
 17 18  2  0
 17 19  1  0
 77 79  1  0
 77 78  1  6
 19 20  1  0
 20 26  1  0
 20 21  1  6
 26 27  2  0
 26 28  1  0
 21 22  1  0
 22 23  1  0
 23 24  2  0
 23 25  1  0
 28 29  1  0
 29 34  1  0
 29 30  1  6
 34 35  2  0
 34 36  1  0
 30 31  1  0
 31 32  1  6
 31 33  1  0
 36 37  1  0
 37 40  1  0
 37 38  1  1
 40 41  2  0
 40 42  1  0
 38 39  1  0
 43 42  1  1
 43 70  1  0
 43 44  1  0
 70 71  1  6
 70 72  1  0
 72 73  1  0
 73 75  1  6
 73 76  1  0
 73 74  2  0
 44 45  2  0
 44 46  1  0
 46 47  1  0
 47 53  1  0
 47 48  1  1
 53 54  2  0
 53 55  1  0
 48 49  1  0
 49 50  1  0
 50 51  2  0
 50 52  1  0
 55 59  1  0
 55 56  1  0
 59 60  1  1
 59 58  1  0
 60 61  2  0
 60 62  1  0
 58 57  1  0
 57 56  1  0
 62 66  1  0
 62 63  1  0
 66 67  1  1
 66 65  1  0
 67 69  1  0
 67 68  2  0
 65 64  1  0
 64 63  1  0
M  CHG  1   6   1
M  END
$$$$
