
     RDKit          3D

 28 30  0  0  0  0  0  0  0  0999 V2000
   23.0425  -25.6737   -1.9626 N   0  0  0  0  0  4  0  0  0  0  0  0
   22.4558  -24.3354   -1.9673 C   0  0  0  0  0  0  0  0  0  0  0  0
   23.6008  -23.3010   -1.9414 C   0  0  0  0  0  0  0  0  0  0  0  0
   23.3334  -22.1962   -0.8767 N   0  0  0  0  0  4  0  0  0  0  0  0
   24.0320  -20.9738   -1.2230 C   0  0  2  0  0  0  0  0  0  0  0  0
   24.0467  -20.0460    0.0215 C   0  0  0  0  0  0  0  0  0  0  0  0
   22.6105  -19.5018    0.2983 C   0  0  0  0  0  0  0  0  0  0  0  0
   22.0671  -18.7591   -0.9289 C   0  0  2  0  0  0  0  0  0  0  0  0
   20.6402  -18.2317   -0.5752 C   0  0  0  0  0  0  0  0  0  0  0  0
   20.6813  -17.0906    0.4539 C   0  0  0  0  0  0  0  0  0  0  0  0
   21.0121  -17.3545    1.5978 O   0  0  0  0  0  0  0  0  0  0  0  0
   19.8508  -15.8715    0.2637 N   0  0  0  0  0  0  0  0  0  0  0  0
   19.4245  -15.0751    1.4516 C   0  0  1  0  0  0  0  0  0  0  0  0
   20.4134  -15.3384    2.5092 C   0  0  0  0  0  0  0  0  0  0  0  0
   21.7692  -14.6451    2.0780 C   0  0  0  0  0  0  0  0  0  0  0  0
   23.0135  -15.3087    2.0347 C   0  0  0  0  0  0  0  0  0  0  0  0
   24.1381  -14.5745    1.6821 C   0  0  0  0  0  0  0  0  0  0  0  0
   24.0395  -13.2470    1.2666 C   0  0  0  0  0  0  0  0  0  0  0  0
   22.7978  -12.6260    1.1665 C   0  0  0  0  0  0  0  0  0  0  0  0
   22.6241  -11.1642    0.8060 C   0  0  0  0  0  0  0  0  0  0  0  0
   21.5217  -10.6529    0.7074 O   0  0  0  0  0  0  0  0  0  0  0  0
   23.6639  -10.4236    0.8162 O   0  0  0  0  0  1  0  0  0  0  0  0
   21.6360  -13.3414    1.4855 C   0  0  0  0  0  0  0  0  0  0  0  0
   20.3452  -12.7303    1.3340 O   0  0  0  0  0  0  0  0  0  0  0  0
   19.2721  -13.5466    1.0045 B   0  0  0  0  0  0  0  0  0  0  0  0
   19.1655  -13.5256   -0.3985 O   0  0  0  0  0  3  0  0  0  0  0  0
   22.0011  -19.6407   -2.1599 C   0  0  0  0  0  0  0  0  0  0  0  0
   23.2949  -20.3231   -2.4631 C   0  0  0  0  0  0  0  0  0  0  0  0
 13 25  1  0
 25 26  1  0
 25 24  1  0
 23 19  4  0
 15 23  4  0
 24 23  1  0
 19 20  1  0
 19 18  4  0
 20 22  1  0
 20 21  2  0
 17 18  4  0
 16 17  4  0
 15 16  4  0
 14 15  1  0
 13 14  1  0
 13 12  1  6
  9 10  1  0
 10 12  1  0
 10 11  2  0
  8  9  1  6
  7  8  1  0
  8 27  1  0
  6  7  1  0
  5  6  1  0
  5 28  1  0
  5  4  1  1
  3  2  1  0
  3  4  1  0
  2  1  1  0
 28 27  1  0
M  CHG  4   1   1   4   1  22  -1  26   1
M  END
$$$$
