
     RDKit          3D

116118  0  0  0  0  0  0  0  0999 V2000
  -22.4794   -9.7670  -23.0380 H   0  0  0  0  0  0  0  0  0  0  0  0
  -22.8320   -9.6780  -22.0850 N   0  0  0  0  0  0  0  0  0  0  0  0
  -22.8220   -8.5090  -21.4880 C   0  0  0  0  0  0  0  0  0  0  0  0
  -23.3010   -8.4110  -20.2600 N   0  0  0  0  0  0  0  0  0  0  0  0
  -22.3510   -7.4430  -22.1300 N   0  0  0  0  0  0  0  0  0  0  0  0
  -21.8020   -7.4680  -23.4770 C   0  0  0  0  0  0  0  0  0  0  0  0
  -20.3700   -8.0060  -23.4890 C   0  0  0  0  0  0  0  0  0  0  0  0
  -19.7450   -7.9720  -24.8610 C   0  0  0  0  0  0  0  0  0  0  0  0
  -18.3160   -8.5180  -24.8990 C   0  0  2  0  0  0  0  0  0  0  0  0
  -17.4210   -7.6640  -24.1250 N   0  0  0  0  0  0  0  0  0  0  0  0
  -16.1520   -8.0300  -23.9650 C   0  0  0  0  0  0  0  0  0  0  0  0
  -15.7100   -9.1050  -24.3970 O   0  0  0  0  0  0  0  0  0  0  0  0
  -15.2850   -7.0380  -23.2060 C   0  0  2  0  0  0  0  0  0  0  0  0
  -14.7320   -6.0220  -24.1980 C   0  0  0  0  0  0  0  0  0  0  0  0
  -14.2950   -6.7070  -25.3560 O   0  0  0  0  0  0  0  0  0  0  0  0
  -14.2240   -7.7090  -22.4720 N   0  0  0  0  0  0  0  0  0  0  0  0
  -14.2940   -7.8410  -21.1500 C   0  0  0  0  0  0  0  0  0  0  0  0
  -15.2930   -7.5140  -20.5080 O   0  0  0  0  0  0  0  0  0  0  0  0
  -13.0780   -8.4470  -20.4600 C   0  0  2  0  0  0  0  0  0  0  0  0
  -13.4480   -9.7040  -19.6640 C   0  0  0  0  0  0  0  0  0  0  0  0
  -13.8610   -9.1580  -18.3300 C   0  0  0  0  0  0  0  0  0  0  0  0
  -13.0080   -7.9440  -18.0680 C   0  0  0  0  0  0  0  0  0  0  0  0
  -12.5840   -7.5260  -19.4180 N   0  0  0  0  0  0  0  0  0  0  0  0
  -11.8240   -6.4670  -19.7190 C   0  0  0  0  0  0  0  0  0  0  0  0
  -11.5110   -6.2020  -20.8820 O   0  0  0  0  0  0  0  0  0  0  0  0
  -11.3480   -5.5950  -18.5670 C   0  0  0  0  0  0  0  0  0  0  0  0
   -9.9810   -5.8950  -18.1900 N   0  0  0  0  0  0  0  0  0  0  0  0
   -9.6840   -6.4290  -17.0110 C   0  0  0  0  0  0  0  0  0  0  0  0
  -10.5530   -6.7560  -16.2060 O   0  0  0  0  0  0  0  0  0  0  0  0
   -8.2250   -6.6680  -16.6470 C   0  0  2  0  0  0  0  0  0  0  0  0
   -7.7650   -5.6180  -15.6200 C   0  0  0  0  0  0  0  0  0  0  0  0
   -6.1460   -6.0150  -14.9140 S   0  0  0  0  0  0  0  0  0  0  0  0
   -7.3310   -6.7100  -17.7960 N   0  0  0  0  0  0  0  0  0  0  0  0
   -6.7740   -7.8400  -18.2310 C   0  0  0  0  0  0  0  0  0  0  0  0
   -6.8740   -8.9170  -17.6370 O   0  0  0  0  0  0  0  0  0  0  0  0
   -6.0060   -7.7640  -19.5400 C   0  0  2  0  0  0  0  0  0  0  0  0
   -6.6190   -8.7270  -20.5560 C   0  0  0  0  0  0  0  0  0  0  0  0
   -8.0470   -8.3590  -20.9560 C   0  0  1  0  0  0  0  0  0  0  0  0
   -8.0530   -7.1290  -21.8320 C   0  0  0  0  0  0  0  0  0  0  0  0
   -8.7240   -9.5040  -21.6620 C   0  0  0  0  0  0  0  0  0  0  0  0
   -4.6210   -8.1390  -19.3030 N   0  0  0  0  0  0  0  0  0  0  0  0
   -3.6050   -7.2980  -19.4400 C   0  0  0  0  0  0  0  0  0  0  0  0
   -3.7570   -6.0910  -19.6570 O   0  0  0  0  0  0  0  0  0  0  0  0
   -2.2220   -7.9170  -19.2710 C   0  0  2  0  0  0  0  0  0  0  0  0
   -1.6770   -7.7340  -17.8490 C   0  0  0  0  0  0  0  0  0  0  0  0
   -0.1870   -7.8090  -18.0550 C   0  0  0  0  0  0  0  0  0  0  0  0
    0.0280   -7.0030  -19.3240 C   0  0  0  0  0  0  0  0  0  0  0  0
   -1.2010   -7.2650  -20.0980 N   0  0  0  0  0  0  0  0  0  0  0  0
   -1.3930   -7.1180  -21.4040 C   0  0  0  0  0  0  0  0  0  0  0  0
   -2.3970   -7.5720  -21.9610 O   0  0  0  0  0  0  0  0  0  0  0  0
   -0.3460   -6.3760  -22.2250 C   0  0  1  0  0  0  0  0  0  0  0  0
    0.0340   -7.1850  -23.3690 N   0  0  0  0  0  0  0  0  0  0  0  0
    1.2980   -7.5550  -23.5870 C   0  0  0  0  0  0  0  0  0  0  0  0
    2.2540   -6.9950  -23.0400 O   0  0  0  0  0  0  0  0  0  0  0  0
    1.5490   -8.6880  -24.5810 C   0  0  1  0  0  0  0  0  0  0  0  0
    1.9740   -9.9130  -23.9020 N   0  0  0  0  0  0  0  0  0  0  0  0
    3.1180  -10.4860  -24.2690 C   0  0  0  0  0  0  0  0  0  0  0  0
    3.7960   -9.9930  -25.1690 O   0  0  0  0  0  0  0  0  0  0  0  0
    3.6410  -11.6770  -23.4660 C   0  0  2  0  0  0  0  0  0  0  0  0
    3.3150  -12.9800  -24.1660 C   0  0  0  0  0  0  0  0  0  0  0  0
    3.0760  -11.6890  -22.1210 N   0  0  0  0  0  0  0  0  0  0  0  0
    3.4480  -10.6600  -21.2040 C   0  0  0  0  0  0  0  0  0  0  0  0
    4.1050   -9.7550  -21.6640 O   0  0  0  0  0  0  0  0  0  0  0  0
    2.9840  -10.7100  -19.8200 C   0  0  0  0  0  0  0  0  0  0  0  0
    2.2460  -11.8190  -19.3800 C   0  0  0  0  0  0  0  0  0  0  0  0
    1.8050  -11.9130  -18.0720 C   0  0  0  0  0  0  0  0  0  0  0  0
    2.0960  -10.9140  -17.1760 C   0  0  0  0  0  0  0  0  0  0  0  0
    2.8180   -9.8090  -17.5810 C   0  0  0  0  0  0  0  0  0  0  0  0
    3.2660   -9.6780  -18.9040 C   0  0  0  0  0  0  0  0  0  0  0  0
    3.9680   -8.5510  -19.2860 N   0  0  0  0  0  0  0  0  0  0  0  0
    0.3390   -8.9530  -25.4790 C   0  0  1  0  0  0  0  0  0  0  0  0
    0.7350   -9.8250  -26.6700 C   0  0  0  0  0  0  0  0  0  0  0  0
   -0.6780   -9.6190  -24.7240 O   0  0  0  0  0  0  0  0  0  0  0  0
   -0.9170   -5.0430  -22.7150 C   0  0  1  0  0  0  0  0  0  0  0  0
   -1.2590   -4.1270  -21.5440 C   0  0  0  0  0  0  0  0  0  0  0  0
    0.0520   -4.4070  -23.5540 O   0  0  0  0  0  0  0  0  0  0  0  0
  -17.8410   -8.6590  -26.3350 C   0  0  0  0  0  0  0  0  0  0  0  0
  -17.9930   -9.7250  -26.9430 O   0  0  0  0  0  0  0  0  0  0  0  0
  -17.2630   -7.6010  -26.8930 N   0  0  0  0  0  0  0  0  0  0  0  0
  -16.7720   -7.6450  -28.2620 C   0  0  1  0  0  0  0  0  0  0  0  0
  -16.2620   -6.2630  -28.6720 C   0  0  0  0  0  0  0  0  0  0  0  0
  -15.6600   -8.6670  -28.4160 C   0  0  0  0  0  0  0  0  0  0  0  0
  -15.4910   -9.2420  -29.5020 O   0  0  0  0  0  0  0  0  0  0  0  0
  -14.8810   -8.8950  -27.3540 N   0  0  0  0  0  0  0  0  0  0  0  0
  -13.6490   -9.6600  -27.4850 C   0  0  1  0  0  0  0  0  0  0  0  0
  -12.8000   -9.5280  -26.2190 C   0  0  0  0  0  0  0  0  0  0  0  0
  -13.3420  -10.2650  -25.1440 O   0  0  0  0  0  0  0  0  0  0  0  0
  -13.8870  -11.1310  -27.7710 C   0  0  0  0  0  0  0  0  0  0  0  0
  -12.9810  -11.7920  -28.2880 O   0  0  0  0  0  0  0  0  0  0  0  0
  -15.0720  -11.6610  -27.4470 N   0  0  0  0  0  0  0  0  0  0  0  0
  -15.3330  -13.0890  -27.6200 C   0  0  2  0  0  0  0  0  0  0  0  0
  -15.9020  -13.4260  -28.9870 C   0  0  0  0  0  0  0  0  0  0  0  0
  -16.0930  -14.6160  -29.2900 O   0  0  0  0  0  0  0  0  0  0  0  0
  -16.1900  -12.4280  -29.8170 N   0  0  0  0  0  0  0  0  0  0  0  0
  -16.7590  -12.6610  -31.1370 C   0  0  1  0  0  0  0  0  0  0  0  0
  -17.5060  -11.4150  -31.5920 C   0  0  0  0  0  0  0  0  0  0  0  0
  -18.6250  -10.9080  -30.6910 C   0  0  1  0  0  0  0  0  0  0  0  0
  -19.1140   -9.5690  -31.2120 C   0  0  0  0  0  0  0  0  0  0  0  0
  -19.7660  -11.9070  -30.6260 C   0  0  0  0  0  0  0  0  0  0  0  0
  -15.6330  -12.9630  -32.1150 C   0  0  0  0  0  0  0  0  0  0  0  0
  -14.7470  -12.1270  -32.3300 O   0  0  0  0  0  0  0  0  0  0  0  0
  -15.6890  -14.1350  -32.7400 N   0  0  0  0  0  0  0  0  0  0  0  0
  -14.5990  -14.5600  -33.6060 C   0  0  1  0  0  0  0  0  0  0  0  0
  -13.4180  -15.0220  -32.7490 C   0  0  0  0  0  0  0  0  0  0  0  0
  -12.3680  -15.5260  -33.5540 O   0  0  0  0  0  0  0  0  0  0  0  0
  -15.0190  -15.6760  -34.5570 C   0  0  0  0  0  0  0  0  0  0  0  0
  -14.6300  -16.8340  -34.3670 O   0  0  0  0  0  0  0  0  0  0  0  0
  -15.8010  -15.3480  -35.5820 N   0  0  0  0  0  0  0  0  0  0  0  0
  -16.1630  -16.3340  -36.5910 C   0  0  0  0  0  0  0  0  0  0  0  0
  -17.5940  -16.8390  -36.5640 C   0  0  0  0  0  0  0  0  0  0  0  0
  -18.5350  -16.1200  -36.9220 O   0  0  0  0  0  0  0  0  0  0  0  0
  -17.8630  -17.9850  -36.1830 O   0  0  0  0  0  0  0  0  0  0  0  0
  -16.2830  -13.6350  -26.5380 C   0  0  1  0  0  0  0  0  0  0  0  0
  -15.7080  -13.3800  -25.1620 C   0  0  0  0  0  0  0  0  0  0  0  0
  -17.6710  -13.0110  -26.6820 C   0  0  0  0  0  0  0  0  0  0  0  0
  -18.7730  -13.7630  -25.9750 C   0  0  0  0  0  0  0  0  0  0  0  0
 62 63  2  0
 62 64  1  0
 62 61  1  0
 64 69  2  0
 64 65  1  0
 69 68  1  0
 69 70  1  0
 68 67  2  0
 67 66  1  0
 66 65  2  0
 61 59  1  0
 59 57  1  0
 59 60  1  6
 57 58  2  0
 57 56  1  0
 55 56  1  1
 55 53  1  0
 55 71  1  0
 53 54  2  0
 53 52  1  0
 71 73  1  0
 71 72  1  6
 51 52  1  6
 51 49  1  0
 51 74  1  0
 49 50  2  0
 49 48  1  0
 74 76  1  0
 74 75  1  1
 48 44  1  0
 48 47  1  0
 44 42  1  1
 44 45  1  0
 42 43  2  0
 42 41  1  0
 45 46  1  0
 46 47  1  0
 41 36  1  0
 36 34  1  0
 36 37  1  6
 34 35  2  0
 34 33  1  0
 37 38  1  0
 38 39  1  6
 38 40  1  0
 33 30  1  0
 30 28  1  0
 30 31  1  1
 28 29  2  0
 28 27  1  0
 31 32  1  0
 27 26  1  0
 26 24  1  0
 24 25  2  0
 24 23  1  0
 23 19  1  0
 23 22  1  0
 19 17  1  1
 19 20  1  0
 17 18  2  0
 17 16  1  0
 20 21  1  0
 21 22  1  0
 16 13  1  0
 13 11  1  0
 13 14  1  6
 11 12  2  0
 11 10  1  0
 14 15  1  0
 10  9  1  0
  9 77  1  0
  9  8  1  6
 77 78  2  0
 77 79  1  0
  8  7  1  0
  7  6  1  0
  6  5  1  0
  5  3  1  0
  3  2  2  0
  3  4  1  0
 79 80  1  0
 80 82  1  0
 80 81  1  1
 82 83  2  0
 82 84  1  0
 84 85  1  0
 85 88  1  0
 85 86  1  1
 88 89  2  0
 88 90  1  0
 86 87  1  0
 91 90  1  6
 91 92  1  0
 91113  1  0
 92 93  2  0
 92 94  1  0
113115  1  0
113114  1  1
115116  1  0
 94 95  1  0
 95100  1  0
 95 96  1  6
100101  2  0
100102  1  0
 96 97  1  0
 97 98  1  6
 97 99  1  0
102103  1  0
103106  1  0
103104  1  1
106107  2  0
106108  1  0
104105  1  0
108109  1  0
109110  1  0
110112  1  0
110111  2  0
  2  1  1  0
M  END
$$$$
