
     RDKit          3D

 28 30  0  0  0  0  0  0  0  0999 V2000
  -26.8080   46.6800   13.2600 C   0  0  0  0  0  0  0  0  0  0  0  0
  -26.6650   45.4360   12.4000 C   0  0  1  0  0  0  0  0  0  0  0  0
  -27.7580   45.3550   11.3470 C   0  0  0  0  0  0  0  0  0  0  0  0
  -27.5650   44.1460   10.4480 C   0  0  0  0  0  0  0  0  0  0  0  0
  -26.2090   44.1890    9.8050 C   0  0  0  0  0  0  0  0  0  0  0  0
  -25.1940   44.2200   10.8650 N   0  0  0  0  0  0  0  0  0  0  0  0
  -23.7400   43.5490   10.5710 S   0  0  2  0  0  0  0  0  0  0  0  0
  -23.9910   42.3940    9.7710 O   0  0  0  0  0  0  0  0  0  0  0  0
  -23.1020   43.4000   11.8420 O   0  0  0  0  0  0  0  0  0  0  0  0
  -22.7410   44.6500    9.5800 C   0  0  0  0  0  0  0  0  0  0  0  0
  -23.3580   45.7920    9.0930 C   0  0  0  0  0  0  0  0  0  0  0  0
  -22.6520   46.6990    8.3080 C   0  0  0  0  0  0  0  0  0  0  0  0
  -23.2320   47.8860    7.7980 N   0  0  0  0  0  0  0  0  0  0  0  0
  -24.5110   48.3140    7.8880 C   0  0  0  0  0  0  0  0  0  0  0  0
  -25.4160   47.6990    8.4500 O   0  0  0  0  0  0  0  0  0  0  0  0
  -24.7530   49.6580    7.2250 C   0  0  0  0  0  0  0  0  0  0  0  0
  -26.1020   50.1860    7.3440 N   0  0  0  0  0  0  0  0  0  0  0  0
  -26.5960   50.8750    8.4650 C   0  0  0  0  0  0  0  0  0  0  0  0
  -25.9600   51.0990    9.4910 O   0  0  0  0  0  0  0  0  0  0  0  0
  -28.0160   51.2520    8.1410 C   0  0  0  0  0  0  0  0  0  0  0  0
  -28.1740   50.7110    6.8070 N   0  0  0  0  0  0  0  0  0  0  0  0
  -27.0630   50.1050    6.3500 C   0  0  0  0  0  0  0  0  0  0  0  0
  -26.9040   49.5620    5.2620 O   0  0  0  0  0  0  0  0  0  0  0  0
  -21.3140   46.4520    8.0090 C   0  0  0  0  0  0  0  0  0  0  0  0
  -20.6900   45.3120    8.4830 C   0  0  0  0  0  0  0  0  0  0  0  0
  -21.3950   44.4080    9.2630 C   0  0  0  0  0  0  0  0  0  0  0  0
  -20.4480   42.8800    9.8690 Br  0  0  0  0  0  0  0  0  0  0  0  0
  -25.3030   45.4120   11.7210 C   0  0  0  0  0  0  0  0  0  0  0  0
  5  4  1  0
  4  3  1  0
  6  5  1  0
 28  2  1  0
  6 28  1  0
 11 12  2  0
 10 11  1  0
 12 13  1  0
 12 24  1  0
  2  1  1  6
  2  3  1  0
  7  6  1  1
  7  8  2  0
  7  9  2  0
  7 10  1  0
 10 26  2  0
 13 14  1  0
 14 15  2  0
 14 16  1  0
 16 17  1  0
 17 18  1  0
 17 22  1  0
 18 19  2  0
 18 20  1  0
 20 21  1  0
 21 22  1  0
 22 23  2  0
 24 25  2  0
 25 26  1  0
 26 27  1  0
M  END
$$$$
