
     RDKit          3D

 30 32  0  0  0  0  0  0  0  0999 V2000
  -20.8160   43.2400    9.8220 C   0  0  0  0  0  0  0  0  0  0  0  0
  -21.5110   44.4960    9.3660 C   0  0  0  0  0  0  0  0  0  0  0  0
  -20.8230   45.4090    8.5680 C   0  0  0  0  0  0  0  0  0  0  0  0
  -21.4020   46.5780    8.1080 C   0  0  0  0  0  0  0  0  0  0  0  0
  -22.7140   46.8850    8.4410 C   0  0  0  0  0  0  0  0  0  0  0  0
  -23.2640   48.0940    7.9420 N   0  0  0  0  0  0  0  0  0  0  0  0
  -24.5450   48.5300    8.0040 C   0  0  0  0  0  0  0  0  0  0  0  0
  -25.4630   47.9170    8.5410 O   0  0  0  0  0  0  0  0  0  0  0  0
  -24.7810   49.8810    7.3520 C   0  0  0  0  0  0  0  0  0  0  0  0
  -26.1420   50.3680    7.5120 N   0  0  0  0  0  0  0  0  0  0  0  0
  -26.5780   51.1530    8.5740 C   0  0  0  0  0  0  0  0  0  0  0  0
  -25.8880   51.5360    9.5100 O   0  0  0  0  0  0  0  0  0  0  0  0
  -27.8950   51.4060    8.3780 N   0  0  0  0  0  0  0  0  0  0  0  0
  -28.4150   50.7890    7.1550 C   0  0  1  0  0  0  0  0  0  0  0  0
  -29.4980   49.7570    7.4790 C   0  0  0  0  0  0  0  0  0  0  0  0
  -28.9160   51.8500    6.1720 C   0  0  0  0  0  0  0  0  0  0  0  0
  -27.1620   50.1060    6.6250 C   0  0  0  0  0  0  0  0  0  0  0  0
  -27.0630   49.4440    5.6080 O   0  0  0  0  0  0  0  0  0  0  0  0
  -23.4320   45.9910    9.2280 C   0  0  0  0  0  0  0  0  0  0  0  0
  -22.8420   44.8200    9.6870 C   0  0  0  0  0  0  0  0  0  0  0  0
  -23.8370   43.7450   10.6920 S   0  0  2  0  0  0  0  0  0  0  0  0
  -23.1340   43.5220   11.9160 O   0  0  0  0  0  0  0  0  0  0  0  0
  -24.2140   42.6320    9.8810 O   0  0  0  0  0  0  0  0  0  0  0  0
  -25.2140   44.5320   11.0810 N   0  0  0  0  0  0  0  0  0  0  0  0
  -25.1640   45.5180   12.1800 C   0  0  0  0  0  0  0  0  0  0  0  0
  -26.4420   46.3030   12.4070 C   0  0  0  0  0  0  0  0  0  0  0  0
  -27.6680   45.4610   12.6900 C   0  0  0  0  0  0  0  0  0  0  0  0
  -28.4030   44.9760   11.4690 C   0  0  0  0  0  0  0  0  0  0  0  0
  -27.5990   44.0990   10.5340 C   0  0  0  0  0  0  0  0  0  0  0  0
  -26.2800   44.6580   10.0670 C   0  0  0  0  0  0  0  0  0  0  0  0
  5  4  2  0
  6  5  1  0
  5 19  1  0
  9  7  1  0
  7  6  1  0
  7  8  2  0
 10  9  1  0
 14 15  1  1
 14 16  1  0
  2  1  1  0
  3  2  2  0
  2 20  1  0
  4  3  1  0
 11 10  1  0
 10 17  1  0
 11 12  2  0
 13 11  1  0
 13 14  1  0
 14 17  1  0
 17 18  2  0
 19 20  2  0
 20 21  1  0
 21 22  2  0
 21 23  2  0
 21 24  1  1
 24 25  1  0
 24 30  1  0
 25 26  1  0
 26 27  1  0
 27 28  1  0
 28 29  1  0
 29 30  1  0
M  END
$$$$
