
     RDKit          3D

 49 55  0  0  0  0  0  0  0  0999 V2000
   -2.6095    0.2023   15.8774 C   0  0  0  0  0  0  0  0  0  0  0  0
   -1.1008    0.0472   16.0550 C   0  0  0  0  0  0  0  0  0  0  0  0
   -0.8502   -1.2699   16.8476 C   0  0  0  0  0  0  0  0  0  0  0  0
   -1.8127   -2.0124   16.9888 O   0  0  0  0  0  0  0  0  0  0  0  0
    0.4254   -1.7040   16.7620 N   0  0  0  0  0  0  0  0  0  0  0  0
    1.4285   -0.8946   16.4588 C   0  0  0  0  0  0  0  0  0  0  0  0
    2.6155   -1.0091   17.0815 C   0  0  0  0  0  0  0  0  0  0  0  0
    3.6397   -0.1955   16.6740 C   0  0  0  0  0  0  0  0  0  0  0  0
    3.4866    0.7116   15.6908 C   0  0  0  0  0  0  0  0  0  0  0  0
    4.0611    1.8758   15.5162 N   0  0  0  0  0  0  0  0  0  0  0  0
    3.3407    2.5343   14.5771 C   0  0  0  0  0  0  0  0  0  0  0  0
    3.1124    3.7729   14.6396 O   0  0  0  0  0  0  0  0  0  0  0  0
    2.4914    1.6522   14.0121 N   0  0  0  0  0  0  0  0  0  0  0  0
    2.4609    1.4400   12.5039 C   0  0  1  0  0  0  0  0  0  0  0  0
    1.2229    0.6304   12.0748 C   0  0  0  0  0  0  0  0  0  0  0  0
    0.0349    1.4929   11.7674 C   0  0  0  0  0  0  0  0  0  0  0  0
    0.4030    2.5434   10.8164 N   0  0  1  0  0  0  0  0  0  0  0  0
   -0.8281    3.3828   10.5835 C   0  0  0  0  0  0  0  0  0  0  0  0
   -0.5867    4.5120    9.6854 C   0  0  0  0  0  0  0  0  0  0  0  0
    0.2620    4.1848    8.5740 C   0  0  0  0  0  0  0  0  0  0  0  0
    1.4952    4.8196    8.4166 C   0  0  0  0  0  0  0  0  0  0  0  0
    1.9110    5.7431    9.4279 C   0  0  0  0  0  0  0  0  0  0  0  0
    3.0761    5.3728   10.1546 C   0  0  0  0  0  0  0  0  0  0  0  0
    4.0838    6.3709   10.4950 C   0  0  0  0  0  0  0  0  0  0  0  0
    3.8083    7.7514   10.5845 C   0  0  0  0  0  0  0  0  0  0  0  0
    3.1865    8.2137   11.7640 C   0  0  0  0  0  0  0  0  0  0  0  0
    3.8775    9.2083   12.5490 C   0  0  0  0  0  0  0  0  0  0  0  0
    4.9054    9.9249   11.9738 C   0  0  0  0  0  0  0  0  0  0  0  0
    5.3261    9.6625   10.6607 C   0  0  0  0  0  0  0  0  0  0  0  0
    4.5996    8.6454    9.9275 C   0  0  0  0  0  0  0  0  0  0  0  0
    5.1663    5.9970   11.3031 N   0  0  0  0  0  0  0  0  0  0  0  0
    5.0208    4.8756   12.0415 C   0  0  0  0  0  0  0  0  0  0  0  0
    5.3749    4.9187   13.2528 O   0  0  0  0  0  0  0  0  0  0  0  0
    4.0419    3.9107   11.7599 C   0  0  0  0  0  0  0  0  0  0  0  0
    4.3965    2.5918   12.0943 C   0  0  0  0  0  0  0  0  0  0  0  0
    5.2995    2.3827   13.0974 C   0  0  0  0  0  0  0  0  0  0  0  0
    4.9319    2.1072   14.3879 C   0  0  0  0  0  0  0  0  0  0  0  0
    5.9172    1.9687   15.3959 C   0  0  0  0  0  0  0  0  0  0  0  0
    7.2491    2.1558   15.0902 C   0  0  0  0  0  0  0  0  0  0  0  0
    8.1760    2.1397   16.0973 O   0  0  0  0  0  0  0  0  0  0  0  0
    7.6301    2.4509   13.7966 C   0  0  0  0  0  0  0  0  0  0  0  0
    6.6313    2.5784   12.8262 C   0  0  0  0  0  0  0  0  0  0  0  0
    3.0499    4.2607   10.8956 N   0  0  0  0  0  0  0  0  0  0  0  0
    0.8667    6.4067   10.1113 C   0  0  0  0  0  0  0  0  0  0  0  0
   -0.3764    5.7807   10.2718 C   0  0  0  0  0  0  0  0  0  0  0  0
    1.4255    3.3932   11.4016 C   0  0  0  0  0  0  0  0  0  0  0  0
    2.6884    2.5997   11.6941 C   0  0  0  0  0  0  0  0  0  0  0  0
    2.3845    0.6724   14.8850 C   0  0  0  0  0  0  0  0  0  0  0  0
    1.3093    0.0179   15.3791 C   0  0  0  0  0  0  0  0  0  0  0  0
 34 32  1  0
 34 35  2  0
 43 34  1  0
 31 32  1  0
 32 33  2  0
 23 24  2  0
 24 25  1  0
 24 31  1  0
 22 23  1  0
 23 43  1  0
 25 26  4  0
 25 30  4  0
 21 22  4  0
 44 22  4  0
 26 27  4  0
 27 28  4  0
 29 28  4  0
 30 29  4  0
 20 21  4  0
 19 20  4  0
 19 45  4  0
 18 19  1  0
 45 44  4  0
 17 18  1  6
 15 16  1  0
 16 17  1  0
 14 15  1  0
 14 47  1  0
 14 13  1  1
 47 46  1  0
 46 17  1  0
 13 11  4  0
 11 10  4  0
 11 12  2  0
 48  9  4  0
  8  9  4  0
  9 10  4  0
 49 48  4  0
 48 13  4  0
  7  8  4  0
  6  7  4  0
  6 49  4  0
  5  6  1  0
  3  2  1  0
  3  5  1  0
  3  4  2  0
  2  1  1  0
 35 36  1  0
 36 37  4  0
 36 42  4  0
 37 38  4  0
 38 39  4  0
 39 41  4  0
 39 40  1  0
 41 42  4  0
M  CHG  1  17   1
M  END
$$$$
