
     RDKit          3D

 49 55  0  0  0  0  0  0  0  0999 V2000
    3.3310   13.4710    2.4550 C   0  0  0  0  0  0  0  0  0  0  0  0
    3.2860   13.4290    4.0040 C   0  0  0  0  0  0  0  0  0  0  0  0
    2.1610   12.4770    4.4140 C   0  0  0  0  0  0  0  0  0  0  0  0
    1.1390   12.9020    4.9490 O   0  0  0  0  0  0  0  0  0  0  0  0
    2.4120   11.1860    4.1500 N   0  0  0  0  0  0  0  0  0  0  0  0
    1.4820   10.2650    4.4040 C   0  0  0  0  0  0  0  0  0  0  0  0
    0.3080   10.2850    3.6680 C   0  0  0  0  0  0  0  0  0  0  0  0
   -0.6420    9.3120    3.9200 C   0  0  0  0  0  0  0  0  0  0  0  0
   -0.4210    8.3770    4.8400 C   0  0  0  0  0  0  0  0  0  0  0  0
   -1.1920    7.3670    5.2240 N   0  0  0  0  0  0  0  0  0  0  0  0
   -0.5260    6.7130    6.1590 C   0  0  0  0  0  0  0  0  0  0  0  0
   -0.9760    5.7200    6.7290 O   0  0  0  0  0  0  0  0  0  0  0  0
    0.6510    7.2970    6.3850 N   0  0  0  0  0  0  0  0  0  0  0  0
    1.7230    6.8940    7.3590 C   0  0  1  0  0  0  0  0  0  0  0  0
    1.1510    6.4360    8.7040 C   0  0  0  0  0  0  0  0  0  0  0  0
    2.2690    6.0260    9.6480 C   0  0  0  0  0  0  0  0  0  0  0  0
    3.0770    4.9460    9.0700 N   0  0  2  0  0  0  0  0  0  0  0  0
    4.1780    4.6590   10.0020 C   0  0  0  0  0  0  0  0  0  0  0  0
    3.8730    3.7680   11.0390 C   0  0  0  0  0  0  0  0  0  0  0  0
    4.1870    4.1140   12.3480 C   0  0  0  0  0  0  0  0  0  0  0  0
    3.9130    3.2520   13.4020 C   0  0  0  0  0  0  0  0  0  0  0  0
    3.3320    2.0060   13.1770 C   0  0  0  0  0  0  0  0  0  0  0  0
    3.0630    1.1230   14.2390 C   0  0  0  0  0  0  0  0  0  0  0  0
    4.0420    0.7810   15.1960 C   0  0  0  0  0  0  0  0  0  0  0  0
    5.3590    1.2410   15.2210 C   0  0  0  0  0  0  0  0  0  0  0  0
    5.8170    1.9020   16.3540 C   0  0  0  0  0  0  0  0  0  0  0  0
    7.1270    2.3650   16.4190 C   0  0  0  0  0  0  0  0  0  0  0  0
    7.9890    2.1540   15.3510 C   0  0  0  0  0  0  0  0  0  0  0  0
    7.5350    1.4850   14.2190 C   0  0  0  0  0  0  0  0  0  0  0  0
    6.2260    1.0220   14.1540 C   0  0  0  0  0  0  0  0  0  0  0  0
    3.7200   -0.0950   16.2270 N   0  0  0  0  0  0  0  0  0  0  0  0
    2.4460   -0.6280   16.3040 C   0  0  0  0  0  0  0  0  0  0  0  0
    2.1650   -1.4060   17.2160 O   0  0  0  0  0  0  0  0  0  0  0  0
    1.5030   -0.2750   15.3510 C   0  0  0  0  0  0  0  0  0  0  0  0
    0.2470   -0.8760   15.5110 C   0  0  0  0  0  0  0  0  0  0  0  0
   -0.8210   -0.3510   14.7870 C   0  0  0  0  0  0  0  0  0  0  0  0
   -0.8770   -0.4130   13.4000 C   0  0  0  0  0  0  0  0  0  0  0  0
   -1.9780    0.1030   12.7230 C   0  0  0  0  0  0  0  0  0  0  0  0
   -3.0370    0.6640   13.4260 C   0  0  0  0  0  0  0  0  0  0  0  0
   -4.1130    1.1660   12.7620 O   0  0  0  0  0  0  0  0  0  0  0  0
   -2.9910    0.7110   14.8140 C   0  0  0  0  0  0  0  0  0  0  0  0
   -1.8880    0.1970   15.4880 C   0  0  0  0  0  0  0  0  0  0  0  0
    1.8290    0.5750   14.3490 N   0  0  0  0  0  0  0  0  0  0  0  0
    3.0240    1.6580   11.8610 C   0  0  0  0  0  0  0  0  0  0  0  0
    3.2940    2.5260   10.7960 C   0  0  0  0  0  0  0  0  0  0  0  0
    3.6680    5.4540    7.8220 C   0  0  0  0  0  0  0  0  0  0  0  0
    2.5970    5.7940    6.7980 C   0  0  0  0  0  0  0  0  0  0  0  0
    0.7180    8.3390    5.5470 C   0  0  0  0  0  0  0  0  0  0  0  0
    1.6710    9.2550    5.3460 C   0  0  0  0  0  0  0  0  0  0  0  0
 34 32  1  0
 34 35  2  0
 43 34  1  0
 31 32  1  0
 32 33  2  0
 23 24  2  0
 24 25  1  0
 24 31  1  0
 22 23  1  0
 23 43  1  0
 25 26  2  0
 25 30  1  0
 21 22  2  0
 44 22  1  0
 26 27  1  0
 27 28  2  0
 29 28  1  0
 30 29  2  0
 20 21  1  0
 19 20  2  0
 19 45  1  0
 18 19  1  0
 45 44  2  0
 17 18  1  1
 15 16  1  0
 16 17  1  0
 14 15  1  0
 14 47  1  0
 14 13  1  6
 47 46  1  0
 46 17  1  0
 13 11  1  0
 11 10  1  0
 11 12  2  0
 48  9  2  0
  8  9  1  0
  9 10  1  0
 49 48  1  0
 48 13  1  0
  7  8  2  0
  6  7  1  0
  6 49  2  0
  5  6  1  0
  3  2  1  0
  3  5  1  0
  3  4  2  0
  2  1  1  0
 35 36  1  0
 36 37  2  0
 36 42  1  0
 37 38  1  0
 38 39  2  0
 39 41  1  0
 39 40  1  0
 41 42  2  0
M  CHG  1  17   1
M  END
$$$$
