
     RDKit          3D

138143  0  0  0  0  0  0  0  0999 V2000
    4.1440    0.5370   18.2650 C   0  0  0  0  0  0  0  0  0  0  0  0
    5.2670   -0.6570   18.9870 S   0  0  0  0  0  0  0  0  0  0  0  0
    6.3510   -1.0100   17.5770 C   0  0  0  0  0  0  0  0  0  0  0  0
    5.7610   -1.8390   16.4380 C   0  0  0  0  0  0  0  0  0  0  0  0
    5.3960   -3.2770   16.8400 C   0  0  2  0  0  0  0  0  0  0  0  0
    6.5860   -4.0370   17.2350 N   0  0  0  0  0  0  0  0  0  0  0  0
    6.5760   -5.3360   17.5740 C   0  0  0  0  0  0  0  0  0  0  0  0
    5.5530   -6.0270   17.5920 O   0  0  0  0  0  0  0  0  0  0  0  0
    7.9080   -5.9470   18.0120 C   0  0  2  0  0  0  0  0  0  0  0  0
    8.5070   -6.8540   16.9270 C   0  0  0  0  0  0  0  0  0  0  0  0
    8.0460   -8.2290   17.2840 C   0  0  0  0  0  0  0  0  0  0  0  0
    8.0320   -8.2550   18.7850 C   0  0  0  0  0  0  0  0  0  0  0  0
    7.6900   -6.8640   19.1490 N   0  0  0  0  0  0  0  0  0  0  0  0
    7.1580   -6.3800   20.3090 C   0  0  0  0  0  0  0  0  0  0  0  0
    6.9130   -5.1770   20.4620 O   0  0  0  0  0  0  0  0  0  0  0  0
    6.8840   -7.3480   21.4880 C   0  0  1  0  0  0  0  0  0  0  0  0
    7.4470   -6.8420   22.7540 N   0  0  0  0  0  0  0  0  0  0  0  0
    8.7330   -6.5410   22.9420 C   0  0  0  0  0  0  0  0  0  0  0  0
    9.0900   -6.0320   24.3390 C   0  0  0  0  0  0  0  0  0  0  0  0
    9.6070   -6.6520   22.0680 O   0  0  0  0  0  0  0  0  0  0  0  0
    5.3660   -7.6710   21.6570 C   0  0  1  0  0  0  0  0  0  0  0  0
    4.6510   -7.8460   20.3160 C   0  0  0  0  0  0  0  0  0  0  0  0
    5.1590   -8.8980   22.5400 C   0  0  0  0  0  0  0  0  0  0  0  0
    4.5570   -3.9730   15.7520 C   0  0  0  0  0  0  0  0  0  0  0  0
    3.3340   -3.9760   15.8490 O   0  0  0  0  0  0  0  0  0  0  0  0
    5.2300   -4.6220   14.7670 N   0  0  0  0  0  0  0  0  0  0  0  0
    4.6150   -5.3390   13.6430 C   0  0  1  0  0  0  0  0  0  0  0  0
    5.6940   -5.9480   12.7390 C   0  0  0  0  0  0  0  0  0  0  0  0
    6.3200   -4.9390   11.7780 C   0  0  0  0  0  0  0  0  0  0  0  0
    5.5450   -4.8320   10.4770 C   0  0  0  0  0  0  0  0  0  0  0  0
    6.0950   -3.8000    9.5980 N   0  0  0  0  0  0  0  0  0  0  0  0
    5.5450   -3.4230    8.4480 C   0  0  0  0  0  0  0  0  0  0  0  0
    4.4160   -3.9830    8.0280 N   0  0  0  0  0  0  0  0  0  0  0  0
    6.1130   -2.4760    7.7140 N   0  0  0  0  0  4  0  0  0  0  0  0
    3.5820   -6.4070   14.0430 C   0  0  0  0  0  0  0  0  0  0  0  0
    2.6330   -6.6370   13.2900 O   0  0  0  0  0  0  0  0  0  0  0  0
    3.7480   -7.0360   15.2210 N   0  0  0  0  0  0  0  0  0  0  0  0
    2.8280   -8.0760   15.6940 C   0  0  1  0  0  0  0  0  0  0  0  0
    3.6140   -9.2660   16.2730 C   0  0  0  0  0  0  0  0  0  0  0  0
    1.7730   -7.5480   16.6890 C   0  0  0  0  0  0  0  0  0  0  0  0
    1.0290   -8.3360   17.2760 O   0  0  0  0  0  0  0  0  0  0  0  0
    1.6750   -6.2280   16.8480 N   0  0  0  0  0  0  0  0  0  0  0  0
    0.7080   -5.6440   17.7820 C   0  0  1  0  0  0  0  0  0  0  0  0
    1.2840   -4.4070   18.5050 C   0  0  0  0  0  0  0  0  0  0  0  0
    2.5180   -4.7610   19.3460 C   0  0  0  0  0  0  0  0  0  0  0  0
    3.0790   -3.5750   20.1090 C   0  0  0  0  0  0  0  0  0  0  0  0
    4.2710   -3.9490   20.8780 N   0  0  0  0  0  0  0  0  0  0  0  0
    4.7220   -3.2890   21.9390 C   0  0  0  0  0  0  0  0  0  0  0  0
    5.8000   -3.7160   22.5850 N   0  0  0  0  0  0  0  0  0  0  0  0
    4.0880   -2.2130   22.3770 N   0  0  0  0  0  4  0  0  0  0  0  0
   -0.6330   -5.3760   17.1010 C   0  0  0  0  0  0  0  0  0  0  0  0
   -0.7030   -5.3480   15.8670 O   0  0  0  0  0  0  0  0  0  0  0  0
   -1.6990   -5.2300   17.9070 N   0  0  0  0  0  0  0  0  0  0  0  0
   -3.0680   -4.9990   17.4270 C   0  0  1  0  0  0  0  0  0  0  0  0
   -4.1070   -5.3710   18.5120 C   0  0  0  0  0  0  0  0  0  0  0  0
   -4.2060   -6.8820   18.7880 C   0  0  0  0  0  0  0  0  0  0  0  0
   -5.3420   -7.2940   19.7030 C   0  0  0  0  0  0  0  0  0  0  0  0
   -5.6070   -8.5770   19.7510 N   0  0  0  0  0  0  0  0  0  0  0  0
   -6.0110   -6.4920   20.3600 O   0  0  0  0  0  0  0  0  0  0  0  0
   -3.1950   -3.5490   16.9960 C   0  0  0  0  0  0  0  0  0  0  0  0
   -3.7100   -2.7320   17.7500 O   0  0  0  0  0  0  0  0  0  0  0  0
   -2.6630   -3.2110   15.8160 N   0  0  0  0  0  0  0  0  0  0  0  0
   -2.6430   -1.8050   15.3790 C   0  0  1  0  0  0  0  0  0  0  0  0
   -1.1870   -1.2780   15.2930 C   0  0  0  0  0  0  0  0  0  0  0  0
   -0.3890   -1.2620   16.6180 C   0  0  1  0  0  0  0  0  0  0  0  0
    1.1170   -1.1590   16.3500 C   0  0  0  0  0  0  0  0  0  0  0  0
   -0.8830   -0.1830   17.5550 C   0  0  0  0  0  0  0  0  0  0  0  0
   -3.3660   -1.6050   14.0520 C   0  0  0  0  0  0  0  0  0  0  0  0
   -3.5350   -2.5740   13.3270 O   0  0  0  0  0  0  0  0  0  0  0  0
   -3.8620   -0.3880   13.7410 N   0  0  0  0  0  0  0  0  0  0  0  0
   -3.7050    0.8850   14.4800 C   0  0  0  0  0  0  0  0  0  0  0  0
   -4.6490    1.8080   13.7940 C   0  0  0  0  0  0  0  0  0  0  0  0
   -4.8070    1.3330   12.4110 C   0  0  0  0  0  0  0  0  0  0  0  0
   -4.5050   -0.1780   12.4300 C   0  0  1  0  0  0  0  0  0  0  0  0
   -3.5320   -0.4960   11.2840 C   0  0  0  0  0  0  0  0  0  0  0  0
   -2.3140   -0.2920   11.4290 O   0  0  0  0  0  0  0  0  0  0  0  0
   -4.0850   -0.8860   10.1210 N   0  0  0  0  0  0  0  0  0  0  0  0
   -3.3510   -1.1560    8.8780 C   0  0  1  0  0  0  0  0  0  0  0  0
   -4.3250   -1.5110    7.7680 C   0  0  0  0  0  0  0  0  0  0  0  0
   -2.5810    0.1240    8.4860 C   0  0  0  0  0  0  0  0  0  0  0  0
   -1.4230    0.0420    8.0850 O   0  0  0  0  0  0  0  0  0  0  0  0
   -3.2030    1.3060    8.6920 N   0  0  0  0  0  0  0  0  0  0  0  0
   -2.6140    2.6270    8.3650 C   0  0  1  0  0  0  0  0  0  0  0  0
   -3.6180    3.7330    8.6570 C   0  0  0  0  0  0  0  0  0  0  0  0
   -3.8600    3.8030   10.0490 O   0  0  0  0  0  0  0  0  0  0  0  0
   -1.3140    2.9080    9.1020 C   0  0  0  0  0  0  0  0  0  0  0  0
   -0.4970    3.7110    8.6130 O   0  0  0  0  0  0  0  0  0  0  0  0
   -1.1050    2.2460   10.2710 N   0  0  0  0  0  0  0  0  0  0  0  0
    0.1150    2.4150   11.0730 C   0  0  1  0  0  0  0  0  0  0  0  0
   -0.0100    1.6230   12.3730 C   0  0  0  0  0  0  0  0  0  0  0  0
    0.9190    2.0220   13.4980 C   0  0  0  0  0  0  0  0  0  0  0  0
    0.5460    2.9990   14.4140 C   0  0  0  0  0  0  0  0  0  0  0  0
    1.3720    3.3160   15.4950 C   0  0  0  0  0  0  0  0  0  0  0  0
    2.5820    2.6710   15.6540 C   0  0  0  0  0  0  0  0  0  0  0  0
    2.9830    1.7210   14.7360 C   0  0  0  0  0  0  0  0  0  0  0  0
    2.1470    1.3910   13.6660 C   0  0  0  0  0  0  0  0  0  0  0  0
    1.3910    2.0480   10.2820 C   0  0  0  0  0  0  0  0  0  0  0  0
    2.4630    2.5850   10.5610 O   0  0  0  0  0  0  0  0  0  0  0  0
    1.2430    1.1890    9.2630 N   0  0  0  0  0  0  0  0  0  0  0  0
    2.3430    0.6990    8.4280 C   0  0  1  0  0  0  0  0  0  0  0  0
    2.3670   -0.8490    8.4510 C   0  0  0  0  0  0  0  0  0  0  0  0
    2.3910   -1.4060    9.8460 C   0  0  0  0  0  0  0  0  0  0  0  0
    1.3600   -2.0180   10.5040 C   0  0  0  0  0  0  0  0  0  0  0  0
    1.7190   -2.2770   11.8080 N   0  0  0  0  0  0  0  0  0  0  0  0
    2.9780   -1.7770   12.0270 C   0  0  0  0  0  0  0  0  0  0  0  0
    3.7810   -1.8140   13.1680 C   0  0  0  0  0  0  0  0  0  0  0  0
    5.0480   -1.2680   13.0740 C   0  0  0  0  0  0  0  0  0  0  0  0
    5.4920   -0.6410   11.9010 C   0  0  0  0  0  0  0  0  0  0  0  0
    4.6940   -0.6030   10.7700 C   0  0  0  0  0  0  0  0  0  0  0  0
    3.4240   -1.2110   10.8120 C   0  0  0  0  0  0  0  0  0  0  0  0
    2.2840    1.2370    6.9940 C   0  0  0  0  0  0  0  0  0  0  0  0
    2.9910    0.7320    6.1080 O   0  0  0  0  0  0  0  0  0  0  0  0
    1.4360    2.2560    6.7710 N   0  0  0  0  0  0  0  0  0  0  0  0
    1.2020    2.8540    5.4540 C   0  0  1  0  0  0  0  0  0  0  0  0
   -0.2680    2.6490    5.0200 C   0  0  0  0  0  0  0  0  0  0  0  0
   -0.7270    1.1930    5.0820 C   0  0  0  0  0  0  0  0  0  0  0  0
   -2.1840    0.8930    4.7680 C   0  0  0  0  0  0  0  0  0  0  0  0
   -2.4440   -0.2160    4.2500 O   0  0  0  0  0  0  0  0  0  0  0  0
   -3.0680    1.7300    5.0710 O   0  0  0  0  0  1  0  0  0  0  0  0
    1.5330    4.3350    5.5150 C   0  0  0  0  0  0  0  0  0  0  0  0
    0.6560    5.1810    5.7560 O   0  0  0  0  0  0  0  0  0  0  0  0
    2.7950    4.6540    5.2550 N   0  0  0  0  0  0  0  0  0  0  0  0
    3.1830    6.0720    5.2780 C   0  0  1  0  0  0  0  0  0  0  0  0
    4.6490    6.2300    4.8820 C   0  0  0  0  0  0  0  0  0  0  0  0
    5.0870    7.6860    4.9110 C   0  0  0  0  0  0  0  0  0  0  0  0
    6.5620    7.9800    4.7020 C   0  0  0  0  0  0  0  0  0  0  0  0
    7.3390    7.0440    4.4020 O   0  0  0  0  0  0  0  0  0  0  0  0
    6.9390    9.1670    4.8390 O   0  0  0  0  0  1  0  0  0  0  0  0
    2.3010    6.8330    4.2610 C   0  0  0  0  0  0  0  0  0  0  0  0
    2.1820    6.3700    3.1120 O   0  0  0  0  0  0  0  0  0  0  0  0
    1.6750    7.9680    4.6600 N   0  0  0  0  0  0  0  0  0  0  0  0
    1.6910    8.6210    5.9850 C   0  0  0  0  0  0  0  0  0  0  0  0
    0.4880    9.5240    5.9340 C   0  0  0  0  0  0  0  0  0  0  0  0
    0.5030   10.0060    4.5220 C   0  0  0  0  0  0  0  0  0  0  0  0
    0.9050    8.7700    3.6950 C   0  0  1  0  0  0  0  0  0  0  0  0
    1.7690    9.2070    2.5070 C   0  0  0  0  0  0  0  0  0  0  0  0
    1.1640    9.2740    1.3110 N   0  0  0  0  0  0  0  0  0  0  0  0
    2.9880    9.3610    2.6440 O   0  0  0  0  0  0  0  0  0  0  0  0
 18 20  2  0
 18 19  1  0
 18 17  1  0
 16 17  1  1
 16 14  1  0
 16 21  1  0
 14 15  2  0
 14 13  1  0
 21 22  1  6
 21 23  1  0
 13  9  1  0
 13 12  1  0
  9  7  1  6
  9 10  1  0
  7  8  2  0
  7  6  1  0
 10 11  1  0
 11 12  1  0
  6  5  1  0
  5 24  1  0
  5  4  1  6
 24 25  2  0
 24 26  1  0
  4  3  1  0
  3  2  1  0
  2  1  1  0
 26 27  1  0
 27 35  1  0
 27 28  1  1
 35 36  2  0
 35 37  1  0
 28 29  1  0
 29 30  1  0
 30 31  1  0
 31 32  1  0
 32 34  2  0
 32 33  1  0
 37 38  1  0
 38 40  1  0
 38 39  1  1
 40 41  2  0
 40 42  1  0
 42 43  1  0
 43 51  1  0
 43 44  1  6
 51 52  2  0
 51 53  1  0
 44 45  1  0
 45 46  1  0
 46 47  1  0
 47 48  1  0
 48 50  2  0
 48 49  1  0
 53 54  1  0
 54 60  1  0
 54 55  1  1
 60 61  2  0
 60 62  1  0
 55 56  1  0
 56 57  1  0
 57 59  2  0
 57 58  1  0
 62 63  1  0
 63 68  1  0
 63 64  1  6
 68 69  2  0
 68 70  1  0
 64 65  1  0
 65 66  1  6
 65 67  1  0
 70 74  1  0
 70 71  1  0
 74 75  1  6
 74 73  1  0
 75 76  2  0
 75 77  1  0
 73 72  1  0
 72 71  1  0
 77 78  1  0
 78 80  1  0
 78 79  1  6
 80 81  2  0
 80 82  1  0
 82 83  1  0
 83 86  1  0
 83 84  1  1
 86 87  2  0
 86 88  1  0
 84 85  1  0
 88 89  1  0
 89 97  1  0
 89 90  1  1
 97 98  2  0
 97 99  1  0
 90 91  1  0
 91 92  2  0
 91 96  1  0
 92 93  1  0
 96 95  2  0
 93 94  2  0
 95 94  1  0
 99100  1  0
100111  1  0
100101  1  6
111112  2  0
111113  1  0
101102  1  0
102103  2  0
102110  1  0
103104  1  0
110105  2  0
110109  1  0
104105  1  0
105106  1  0
109108  2  0
106107  2  0
108107  1  0
113114  1  0
114120  1  0
114115  1  1
120121  2  0
120122  1  0
115116  1  0
116117  1  0
117119  1  0
117118  2  0
122123  1  0
123129  1  0
123124  1  6
129130  2  0
129131  1  0
124125  1  0
125126  1  0
126128  1  0
126127  2  0
131135  1  0
131132  1  0
135136  1  6
135134  1  0
136138  2  0
136137  1  0
134133  1  0
133132  1  0
M  CHG  4  34   1  50   1 119  -1 128  -1
M  END
$$$$
