
     RDKit          3D

136141  0  0  0  0  0  0  0  0999 V2000
   -8.4073   19.1397   12.8189 H   0  0  0  0  0  0  0  0  0  0  0  0
   -7.6930   18.4170   12.9080 N   0  0  0  0  0  0  0  0  0  0  0  0
   -7.2930   18.0240   14.1110 C   0  0  0  0  0  0  0  0  0  0  0  0
   -6.3600   17.0840   14.2100 N   0  0  0  0  0  0  0  0  0  0  0  0
   -7.8210   18.5700   15.2050 N   0  0  0  0  0  0  0  0  0  0  0  0
   -7.4590   18.2180   16.5800 C   0  0  0  0  0  0  0  0  0  0  0  0
   -8.5530   18.6190   17.5490 C   0  0  0  0  0  0  0  0  0  0  0  0
   -8.2020   18.3670   19.0120 C   0  0  0  0  0  0  0  0  0  0  0  0
   -9.4190   18.3070   19.9670 C   0  0  2  0  0  0  0  0  0  0  0  0
  -10.2570   19.5040   19.8280 N   0  0  0  0  0  0  0  0  0  0  0  0
  -11.5760   19.5300   20.0810 C   0  0  0  0  0  0  0  0  0  0  0  0
  -12.1940   18.5350   20.4720 O   0  0  0  0  0  0  0  0  0  0  0  0
  -12.3220   20.8810   19.8830 C   0  0  2  0  0  0  0  0  0  0  0  0
  -13.4400   20.7270   18.8660 C   0  0  0  0  0  0  0  0  0  0  0  0
  -11.4610   22.0130   19.5000 N   0  0  0  0  0  0  0  0  0  0  0  0
  -10.9080   22.8920   20.3620 C   0  0  0  0  0  0  0  0  0  0  0  0
  -11.0350   22.7960   21.5820 O   0  0  0  0  0  0  0  0  0  0  0  0
  -10.0430   24.0440   19.7730 C   0  0  2  0  0  0  0  0  0  0  0  0
  -10.7940   25.3840   19.8110 C   0  0  0  0  0  0  0  0  0  0  0  0
  -10.8040   26.0230   21.2000 C   0  0  0  0  0  0  0  0  0  0  0  0
  -10.9220   27.5300   21.1470 C   0  0  0  0  0  0  0  0  0  0  0  0
   -9.6180   28.1870   21.2390 N   0  0  0  0  0  0  0  0  0  0  0  0
   -8.9020   28.6060   20.1950 C   0  0  0  0  0  0  0  0  0  0  0  0
   -7.7270   29.1990   20.3830 N   0  0  0  0  0  0  0  0  0  0  0  0
   -9.3560   28.4380   18.9570 N   0  0  0  0  0  0  0  0  0  0  0  0
  -10.2571   27.9862   18.8012 H   0  0  0  0  0  0  0  0  0  0  0  0
   -9.5170   23.7660   18.4290 N   0  0  0  0  0  0  0  0  0  0  0  0
   -8.5990   22.8020   18.1870 C   0  0  0  0  0  0  0  0  0  0  0  0
   -8.1750   22.0420   19.0560 O   0  0  0  0  0  0  0  0  0  0  0  0
   -8.1730   22.5540   16.7440 C   0  0  2  0  0  0  0  0  0  0  0  0
   -7.0000   23.4360   16.3470 C   0  0  0  0  0  0  0  0  0  0  0  0
   -5.7940   22.6850   15.7900 C   0  0  1  0  0  0  0  0  0  0  0  0
   -4.9030   23.6080   15.0070 C   0  0  0  0  0  0  0  0  0  0  0  0
   -4.9980   22.0000   16.8930 C   0  0  0  0  0  0  0  0  0  0  0  0
   -9.2820   22.6210   15.7940 N   0  0  0  0  0  0  0  0  0  0  0  0
  -10.3950   21.8720   15.9720 C   0  0  0  0  0  0  0  0  0  0  0  0
  -10.5620   21.1240   16.9390 O   0  0  0  0  0  0  0  0  0  0  0  0
  -11.4960   21.9550   14.9250 C   0  0  2  0  0  0  0  0  0  0  0  0
  -12.6820   22.7860   15.4460 C   0  0  0  0  0  0  0  0  0  0  0  0
  -13.8630   22.1240   14.9360 C   0  0  0  0  0  0  0  0  0  0  0  0
  -13.5480   20.6620   14.9180 C   0  0  0  0  0  0  0  0  0  0  0  0
  -12.0960   20.6270   14.6620 N   0  0  0  0  0  0  0  0  0  0  0  0
  -11.2960   19.5680   14.2900 C   0  0  0  0  0  0  0  0  0  0  0  0
  -10.0790   19.7110   14.0940 O   0  0  0  0  0  0  0  0  0  0  0  0
  -11.9230   18.1720   13.9870 C   0  0  1  0  0  0  0  0  0  0  0  0
  -11.3610   17.6120   12.7500 N   0  0  0  0  0  0  0  0  0  0  0  0
  -11.5240   18.1470   11.5430 C   0  0  0  0  0  0  0  0  0  0  0  0
  -10.8690   17.3800   10.4020 C   0  0  0  0  0  0  0  0  0  0  0  0
  -12.1560   19.1860   11.3280 O   0  0  0  0  0  0  0  0  0  0  0  0
  -11.8210   17.1240   15.1550 C   0  0  1  0  0  0  0  0  0  0  0  0
  -10.4630   16.4170   15.1910 C   0  0  0  0  0  0  0  0  0  0  0  0
  -12.1980   17.6990   16.5220 C   0  0  0  0  0  0  0  0  0  0  0  0
   -8.9500   18.1100   21.4240 C   0  0  0  0  0  0  0  0  0  0  0  0
   -8.8820   19.0750   22.1920 O   0  0  0  0  0  0  0  0  0  0  0  0
   -8.6050   16.8600   21.7840 N   0  0  0  0  0  0  0  0  0  0  0  0
   -8.1430   16.4420   23.1160 C   0  0  1  0  0  0  0  0  0  0  0  0
   -8.3370   14.8930   23.2820 C   0  0  0  0  0  0  0  0  0  0  0  0
   -7.8280   14.2170   24.5520 C   0  0  0  0  0  0  0  0  0  0  0  0
   -7.8690   14.9100   25.6960 N   0  0  0  0  0  0  0  0  0  0  0  0
   -7.4040   13.0460   24.5200 O   0  0  0  0  0  0  0  0  0  0  0  0
   -6.7060   16.9390   23.3700 C   0  0  0  0  0  0  0  0  0  0  0  0
   -5.7280   16.1920   23.2390 O   0  0  0  0  0  0  0  0  0  0  0  0
   -6.5870   18.2400   23.6930 N   0  0  0  0  0  0  0  0  0  0  0  0
   -5.2990   18.9020   23.9420 C   0  0  1  0  0  0  0  0  0  0  0  0
   -4.9470   19.8650   22.7800 C   0  0  0  0  0  0  0  0  0  0  0  0
   -4.9260   19.3120   21.3660 C   0  0  1  0  0  0  0  0  0  0  0  0
   -5.0260   20.4140   20.3620 C   0  0  0  0  0  0  0  0  0  0  0  0
   -3.7090   18.4830   21.1250 C   0  0  0  0  0  0  0  0  0  0  0  0
   -5.3760   19.7050   25.2460 C   0  0  0  0  0  0  0  0  0  0  0  0
   -6.4600   20.2400   25.5190 O   0  0  0  0  0  0  0  0  0  0  0  0
   -4.2510   19.8650   26.0260 N   0  0  0  0  0  0  0  0  0  0  0  0
   -2.9050   19.2780   25.8610 C   0  0  0  0  0  0  0  0  0  0  0  0
   -2.3310   19.3490   27.2540 C   0  0  0  0  0  0  0  0  0  0  0  0
   -2.8660   20.6170   27.7850 C   0  0  0  0  0  0  0  0  0  0  0  0
   -4.3100   20.6550   27.2750 C   0  0  1  0  0  0  0  0  0  0  0  0
   -4.8280   22.0840   27.0800 C   0  0  0  0  0  0  0  0  0  0  0  0
   -4.6210   22.6430   25.9990 O   0  0  0  0  0  0  0  0  0  0  0  0
   -5.5510   22.6600   28.0840 N   0  0  0  0  0  0  0  0  0  0  0  0
   -5.8970   22.0950   29.4060 C   0  0  0  0  0  0  0  0  0  0  0  0
   -7.0580   22.9260   29.8280 C   0  0  0  0  0  0  0  0  0  0  0  0
   -6.7750   24.2810   29.2790 C   0  0  0  0  0  0  0  0  0  0  0  0
   -6.1340   24.0120   27.9190 C   0  0  1  0  0  0  0  0  0  0  0  0
   -5.1610   25.1280   27.5550 C   0  0  0  0  0  0  0  0  0  0  0  0
   -5.5760   26.1340   26.9680 O   0  0  0  0  0  0  0  0  0  0  0  0
   -3.8690   24.9400   27.9120 N   0  0  0  0  0  0  0  0  0  0  0  0
   -2.7570   25.8530   27.6850 C   0  0  1  0  0  0  0  0  0  0  0  0
   -1.5310   25.3580   28.4350 C   0  0  0  0  0  0  0  0  0  0  0  0
   -1.2370   24.0270   28.0510 O   0  0  0  0  0  0  0  0  0  0  0  0
   -2.4190   25.9890   26.2120 C   0  0  0  0  0  0  0  0  0  0  0  0
   -1.8170   26.9890   25.8140 O   0  0  0  0  0  0  0  0  0  0  0  0
   -2.7830   24.9810   25.3990 N   0  0  0  0  0  0  0  0  0  0  0  0
   -2.5360   24.9930   23.9600 C   0  0  1  0  0  0  0  0  0  0  0  0
   -3.1130   23.7490   23.3080 C   0  0  0  0  0  0  0  0  0  0  0  0
   -2.5350   23.4400   21.9540 C   0  0  0  0  0  0  0  0  0  0  0  0
   -2.9870   24.1010   20.8190 C   0  0  0  0  0  0  0  0  0  0  0  0
   -2.4750   23.7900   19.5660 C   0  0  0  0  0  0  0  0  0  0  0  0
   -1.5220   22.8080   19.4410 C   0  0  0  0  0  0  0  0  0  0  0  0
   -1.0550   22.1500   20.5520 C   0  0  0  0  0  0  0  0  0  0  0  0
   -1.5740   22.4500   21.8030 C   0  0  0  0  0  0  0  0  0  0  0  0
   -3.1340   26.2390   23.3230 C   0  0  0  0  0  0  0  0  0  0  0  0
   -2.4970   26.8390   22.4500 O   0  0  0  0  0  0  0  0  0  0  0  0
   -4.3260   26.6530   23.8140 N   0  0  0  0  0  0  0  0  0  0  0  0
   -5.0620   27.8200   23.3330 C   0  0  1  0  0  0  0  0  0  0  0  0
   -6.5560   27.4830   23.1360 C   0  0  0  0  0  0  0  0  0  0  0  0
   -6.7820   26.0750   22.6250 C   0  0  0  0  0  0  0  0  0  0  0  0
   -6.4590   25.7320   21.3140 C   0  0  0  0  0  0  0  0  0  0  0  0
   -6.5730   24.4090   20.8700 C   0  0  0  0  0  0  0  0  0  0  0  0
   -7.0180   23.4290   21.7320 C   0  0  0  0  0  0  0  0  0  0  0  0
   -7.3530   23.7520   23.0300 C   0  0  0  0  0  0  0  0  0  0  0  0
   -7.2210   25.0700   23.4810 C   0  0  0  0  0  0  0  0  0  0  0  0
   -4.8540   29.0550   24.2090 C   0  0  0  0  0  0  0  0  0  0  0  0
   -5.2780   30.1390   23.8140 O   0  0  0  0  0  0  0  0  0  0  0  0
   -4.1390   28.9110   25.3540 N   0  0  0  0  0  0  0  0  0  0  0  0
   -3.8300   30.0200   26.2780 C   0  0  2  0  0  0  0  0  0  0  0  0
   -2.3440   30.4420   26.2060 C   0  0  0  0  0  0  0  0  0  0  0  0
   -1.4820   29.8690   26.9000 O   0  0  0  0  0  0  0  0  0  0  0  0
   -2.0760   31.4860   25.3950 N   0  0  0  0  0  0  0  0  0  0  0  0
   -0.7570   32.0750   25.2040 C   0  0  1  0  0  0  0  0  0  0  0  0
   -0.8390   33.2580   24.2150 C   0  0  0  0  0  0  0  0  0  0  0  0
    0.5200   33.8780   23.9030 C   0  0  0  0  0  0  0  0  0  0  0  0
    0.6140   35.0640   22.9600 C   0  0  0  0  0  0  0  0  0  0  0  0
    1.7580   35.4870   22.6750 O   0  0  0  0  0  0  0  0  0  0  0  0
   -0.4400   35.5710   22.5100 O   0  0  0  0  0  0  0  0  0  0  0  0
   -0.1530   32.5200   26.5500 C   0  0  0  0  0  0  0  0  0  0  0  0
   -0.8730   33.1460   27.3350 O   0  0  0  0  0  0  0  0  0  0  0  0
    1.1410   32.2070   26.8430 N   0  0  0  0  0  0  0  0  0  0  0  0
    2.1160   31.4370   26.0430 C   0  0  0  0  0  0  0  0  0  0  0  0
    3.0790   30.9480   27.0630 C   0  0  0  0  0  0  0  0  0  0  0  0
    3.1000   31.9490   28.1550 C   0  0  0  0  0  0  0  0  0  0  0  0
    1.7400   32.6640   28.1130 C   0  0  1  0  0  0  0  0  0  0  0  0
    1.9070   34.1860   28.1670 C   0  0  0  0  0  0  0  0  0  0  0  0
    2.0000   34.7500   29.3760 N   0  0  0  0  0  0  0  0  0  0  0  0
    1.8950   34.8490   27.1310 O   0  0  0  0  0  0  0  0  0  0  0  0
   -4.2900   29.7130   27.7270 C   0  0  1  0  0  0  0  0  0  0  0  0
   -4.1630   30.9180   28.6500 C   0  0  0  0  0  0  0  0  0  0  0  0
   -5.6390   29.2290   27.7300 O   0  0  0  0  0  0  0  0  0  0  0  0
 47 49  2  0
 47 48  1  0
 47 46  1  0
 45 46  1  6
 45 43  1  0
 45 50  1  0
 43 44  2  0
 43 42  1  0
 50 51  1  1
 50 52  1  0
 42 38  1  0
 42 41  1  0
 38 36  1  1
 38 39  1  0
 36 37  2  0
 36 35  1  0
 39 40  1  0
 40 41  1  0
 35 30  1  0
 30 28  1  0
 30 31  1  6
 28 29  2  0
 28 27  1  0
 31 32  1  0
 32 33  1  1
 32 34  1  0
 27 18  1  0
 18 16  1  0
 18 19  1  6
 16 17  2  0
 16 15  1  0
 19 20  1  0
 20 21  1  0
 21 22  1  0
 22 23  1  0
 23 25  2  0
 23 24  1  0
 15 13  1  0
 13 11  1  0
 13 14  1  6
 11 12  2  0
 11 10  1  0
 10  9  1  0
  9 53  1  0
  9  8  1  6
 53 54  2  0
 53 55  1  0
  8  7  1  0
  7  6  1  0
  6  5  1  0
  5  3  1  0
  3  4  1  0
  3  2  2  0
 55 56  1  0
 56 61  1  0
 56 57  1  6
 61 62  2  0
 61 63  1  0
 57 58  1  0
 58 60  2  0
 58 59  1  0
 63 64  1  0
 64 69  1  0
 64 65  1  6
 69 70  2  0
 69 71  1  0
 65 66  1  0
 66 67  1  6
 66 68  1  0
 71 75  1  0
 71 72  1  0
 75 76  1  6
 75 74  1  0
 76 77  2  0
 76 78  1  0
 74 73  1  0
 73 72  1  0
 78 82  1  0
 78 79  1  0
 82 83  1  1
 82 81  1  0
 83 84  2  0
 83 85  1  0
 81 80  1  0
 80 79  1  0
 85 86  1  0
 86 89  1  0
 86 87  1  1
 89 90  2  0
 89 91  1  0
 87 88  1  0
 91 92  1  0
 92100  1  0
 92 93  1  6
100101  2  0
100102  1  0
 93 94  1  0
 94 95  2  0
 94 99  1  0
 95 96  1  0
 99 98  2  0
 96 97  2  0
 98 97  1  0
102103  1  0
103111  1  0
103104  1  1
111112  2  0
111113  1  0
104105  1  0
105106  2  0
105110  1  0
106107  1  0
110109  2  0
107108  2  0
109108  1  0
114113  1  6
114115  1  0
114134  1  0
115116  2  0
115117  1  0
134136  1  0
134135  1  1
117118  1  0
118124  1  0
118119  1  6
124125  2  0
124126  1  0
119120  1  0
120121  1  0
121122  2  0
121123  1  0
126130  1  0
126127  1  0
130131  1  6
130129  1  0
131133  2  0
131132  1  0
129128  1  0
128127  1  0
 25 26  1  0
  2  1  1  0
M  END
$$$$
