
     RDKit          3D

136141  0  0  0  0  0  0  0  0999 V2000
   -3.2737   45.0636   22.1657 H   0  0  0  0  0  0  0  0  0  0  0  0
   -3.6617   46.1891   21.8489 N   0  0  0  0  0  0  0  0  0  0  0  0
   -2.6205   46.7776   21.2313 C   0  0  0  0  0  0  0  0  0  0  0  0
   -1.6015   46.0218   20.8469 N   0  0  0  0  0  0  0  0  0  0  0  0
   -2.5285   48.0969   21.1656 N   0  0  0  0  0  0  0  0  0  0  0  0
   -1.3997   48.9004   21.6552 C   0  0  0  0  0  0  0  0  0  0  0  0
   -1.7160   50.3791   21.6141 C   0  0  0  0  0  0  0  0  0  0  0  0
   -2.4159   50.8180   20.3131 C   0  0  0  0  0  0  0  0  0  0  0  0
   -1.6822   50.4399   19.0717 C   0  0  2  0  0  0  0  0  0  0  0  0
   -2.5646   49.9300   17.9849 N   0  0  0  0  0  0  0  0  0  0  0  0
   -3.6447   50.5802   17.5219 C   0  0  0  0  0  0  0  0  0  0  0  0
   -3.9935   51.7012   18.0439 O   0  0  0  0  0  0  0  0  0  0  0  0
   -4.2383   50.1227   16.1968 C   0  0  2  0  0  0  0  0  0  0  0  0
   -5.5352   49.4079   16.4462 C   0  0  0  0  0  0  0  0  0  0  0  0
   -3.3579   49.3817   15.3677 N   0  0  0  0  0  0  0  0  0  0  0  0
   -2.7876   48.1853   15.7237 C   0  0  0  0  0  0  0  0  0  0  0  0
   -1.6100   47.9784   15.4400 O   0  0  0  0  0  0  0  0  0  0  0  0
   -3.4319   47.3943   16.8763 C   0  0  1  0  0  0  0  0  0  0  0  0
   -4.7430   48.1194   17.3039 C   0  0  0  0  0  0  0  0  0  0  0  0
   -4.5499   49.0160   18.5046 C   0  0  0  0  0  0  0  0  0  0  0  0
   -5.7664   49.1227   19.4016 C   0  0  0  0  0  0  0  0  0  0  0  0
   -5.8716   48.0206   20.2738 N   0  0  0  0  0  0  0  0  0  0  0  0
   -5.5329   46.7172   20.0135 C   0  0  0  0  0  0  0  0  0  0  0  0
   -4.7474   46.0648   20.8667 N   0  0  0  0  0  0  0  0  0  0  0  0
   -5.6005   46.2896   18.7588 N   0  0  0  0  0  0  0  0  0  0  0  0
   -4.8826   47.0490   18.0942 H   0  0  0  0  0  0  0  0  0  0  0  0
   -3.6480   45.9722   16.6039 N   0  0  0  0  0  0  0  0  0  0  0  0
   -2.7755   44.9942   16.9311 C   0  0  0  0  0  0  0  0  0  0  0  0
   -1.5753   44.9456   16.6032 O   0  0  0  0  0  0  0  0  0  0  0  0
   -3.0740   44.2913   18.3105 C   0  0  1  0  0  0  0  0  0  0  0  0
   -1.9670   43.3871   18.7033 C   0  0  0  0  0  0  0  0  0  0  0  0
   -2.3462   42.2741   19.6168 C   0  0  2  0  0  0  0  0  0  0  0  0
   -1.5234   40.9981   19.4118 C   0  0  0  0  0  0  0  0  0  0  0  0
   -3.8549   41.9697   19.5522 C   0  0  0  0  0  0  0  0  0  0  0  0
   -3.2163   45.3948   19.3462 N   0  0  0  0  0  0  0  0  0  0  0  0
   -3.8686   46.5366   18.5504 C   0  0  0  0  0  0  0  0  0  0  0  0
   -2.9890   47.2757   18.0902 O   0  0  0  0  0  0  0  0  0  0  0  0
   -4.8332   45.9093   17.5576 C   0  0  2  0  0  0  0  0  0  0  0  0
   -5.9199   45.1480   18.3280 C   0  0  0  0  0  0  0  0  0  0  0  0
   -5.3373   43.8464   18.5555 C   0  0  0  0  0  0  0  0  0  0  0  0
   -4.5933   43.5060   17.3356 C   0  0  0  0  0  0  0  0  0  0  0  0
   -4.1509   44.8249   16.7844 N   0  0  0  0  0  0  0  0  0  0  0  0
   -3.4863   45.1338   15.6678 C   0  0  0  0  0  0  0  0  0  0  0  0
   -2.3120   45.6554   15.7574 O   0  0  0  0  0  0  0  0  0  0  0  0
   -4.0037   44.8931   14.2405 C   0  0  2  0  0  0  0  0  0  0  0  0
   -5.3277   45.4604   14.1141 N   0  0  0  0  0  0  0  0  0  0  0  0
   -5.7297   46.6222   14.7043 C   0  0  0  0  0  0  0  0  0  0  0  0
   -5.1670   47.9430   14.1397 C   0  0  0  0  0  0  0  0  0  0  0  0
   -6.2773   46.5812   15.8599 O   0  0  0  0  0  0  0  0  0  0  0  0
   -4.0409   43.4115   13.7643 C   0  0  2  0  0  0  0  0  0  0  0  0
   -3.9971   42.4160   14.9222 C   0  0  0  0  0  0  0  0  0  0  0  0
   -2.9212   43.0795   12.7208 C   0  0  0  0  0  0  0  0  0  0  0  0
   -0.5167   49.4487   19.3420 C   0  0  0  0  0  0  0  0  0  0  0  0
    0.2333   49.1011   18.4051 O   0  0  0  0  0  0  0  0  0  0  0  0
   -0.6305   48.6644   20.4500 N   0  0  0  0  0  0  0  0  0  0  0  0
   -1.3858   47.3801   20.3760 C   0  0  1  0  0  0  0  0  0  0  0  0
   -2.2724   47.3024   19.1066 C   0  0  0  0  0  0  0  0  0  0  0  0
   -1.5971   47.8240   17.8229 C   0  0  0  0  0  0  0  0  0  0  0  0
   -2.2058   47.6058   16.6545 N   0  0  0  0  0  0  0  0  0  0  0  0
   -0.3923   48.1843   17.8412 O   0  0  0  0  0  0  0  0  0  0  0  0
   -0.3781   46.2224   20.5076 C   0  0  0  0  0  0  0  0  0  0  0  0
    0.8233   46.3984   20.2812 O   0  0  0  0  0  0  0  0  0  0  0  0
   -0.8986   44.9647   20.3834 N   0  0  0  0  0  0  0  0  0  0  0  0
   -0.4747   44.0089   19.3442 C   0  0  1  0  0  0  0  0  0  0  0  0
   -1.1162   42.6408   19.6219 C   0  0  0  0  0  0  0  0  0  0  0  0
   -1.6311   41.7986   18.4162 C   0  0  1  0  0  0  0  0  0  0  0  0
   -0.5987   40.9004   17.9264 C   0  0  0  0  0  0  0  0  0  0  0  0
   -2.8928   41.0853   18.7328 C   0  0  0  0  0  0  0  0  0  0  0  0
   -0.9194   44.4901   17.9712 C   0  0  0  0  0  0  0  0  0  0  0  0
   -0.3671   45.5493   17.5189 O   0  0  0  0  0  0  0  0  0  0  0  0
   -1.7601   43.7254   17.2026 N   0  0  0  0  0  0  0  0  0  0  0  0
   -3.2186   43.4246   17.3970 C   0  0  0  0  0  0  0  0  0  0  0  0
   -3.6521   42.9703   15.9999 C   0  0  0  0  0  0  0  0  0  0  0  0
   -2.4680   42.2022   15.5069 C   0  0  0  0  0  0  0  0  0  0  0  0
   -1.2792   43.0223   15.9928 C   0  0  1  0  0  0  0  0  0  0  0  0
   -0.7904   44.0159   14.8954 C   0  0  0  0  0  0  0  0  0  0  0  0
    0.1703   43.6425   14.2062 O   0  0  0  0  0  0  0  0  0  0  0  0
   -1.1412   45.3382   15.0703 N   0  0  0  0  0  0  0  0  0  0  0  0
   -2.3299   46.0093   14.5526 C   0  0  0  0  0  0  0  0  0  0  0  0
   -2.8591   46.8196   15.6551 C   0  0  0  0  0  0  0  0  0  0  0  0
   -2.1745   46.3196   16.9075 C   0  0  0  0  0  0  0  0  0  0  0  0
   -0.7599   45.9339   16.4088 C   0  0  2  0  0  0  0  0  0  0  0  0
    0.1009   47.1581   16.3360 C   0  0  0  0  0  0  0  0  0  0  0  0
   -0.3842   48.2384   15.8593 O   0  0  0  0  0  0  0  0  0  0  0  0
    1.4343   47.0016   16.5969 N   0  0  0  0  0  0  0  0  0  0  0  0
    2.1265   45.7280   16.6902 C   0  0  2  0  0  0  0  0  0  0  0  0
    3.1107   45.6206   15.4694 C   0  0  0  0  0  0  0  0  0  0  0  0
    3.5930   46.8750   15.1353 O   0  0  0  0  0  0  0  0  0  0  0  0
    1.2056   44.5275   16.7176 C   0  0  0  0  0  0  0  0  0  0  0  0
    0.2988   44.5085   17.5730 O   0  0  0  0  0  0  0  0  0  0  0  0
    1.4463   45.8103   18.9978 N   0  0  0  0  0  0  0  0  0  0  0  0
    1.7106   46.7105   17.8047 C   0  0  2  0  0  0  0  0  0  0  0  0
    0.8917   45.8850   16.7123 C   0  0  0  0  0  0  0  0  0  0  0  0
    1.8273   45.0384   17.6767 C   0  0  0  0  0  0  0  0  0  0  0  0
    1.1222   44.0975   18.5283 C   0  0  0  0  0  0  0  0  0  0  0  0
    1.7732   43.6310   19.6617 C   0  0  0  0  0  0  0  0  0  0  0  0
    2.9225   44.2206   20.1044 C   0  0  0  0  0  0  0  0  0  0  0  0
    3.5736   45.2061   19.3411 C   0  0  0  0  0  0  0  0  0  0  0  0
    2.8354   45.7915   18.3211 C   0  0  0  0  0  0  0  0  0  0  0  0
    3.0720   44.8971   17.4352 C   0  0  0  0  0  0  0  0  0  0  0  0
    3.8047   45.8231   17.1547 O   0  0  0  0  0  0  0  0  0  0  0  0
    2.5829   44.6230   18.7203 N   0  0  0  0  0  0  0  0  0  0  0  0
    2.4603   45.7674   19.6759 C   0  0  1  0  0  0  0  0  0  0  0  0
    3.3934   45.4650   20.8993 C   0  0  0  0  0  0  0  0  0  0  0  0
    3.8610   44.0533   20.9244 C   0  0  0  0  0  0  0  0  0  0  0  0
    3.7195   43.2511   19.7911 C   0  0  0  0  0  0  0  0  0  0  0  0
    3.3462   41.9035   19.8761 C   0  0  0  0  0  0  0  0  0  0  0  0
    3.2221   41.3162   21.1314 C   0  0  0  0  0  0  0  0  0  0  0  0
    3.5200   42.0099   22.2576 C   0  0  0  0  0  0  0  0  0  0  0  0
    3.9172   43.3856   22.1553 C   0  0  0  0  0  0  0  0  0  0  0  0
    2.8907   47.0743   18.9499 C   0  0  0  0  0  0  0  0  0  0  0  0
    3.1728   46.9791   17.7725 O   0  0  0  0  0  0  0  0  0  0  0  0
    2.4122   48.2441   19.5107 N   0  0  0  0  0  0  0  0  0  0  0  0
    2.8712   49.5582   18.9866 C   0  0  2  0  0  0  0  0  0  0  0  0
    1.7294   50.4526   18.5781 C   0  0  0  0  0  0  0  0  0  0  0  0
    1.8297   51.3192   17.6236 O   0  0  0  0  0  0  0  0  0  0  0  0
    0.5071   50.1690   19.1180 N   0  0  0  0  0  0  0  0  0  0  0  0
   -0.5777   51.1059   19.3253 C   0  0  1  0  0  0  0  0  0  0  0  0
   -0.0152   52.4441   19.8799 C   0  0  0  0  0  0  0  0  0  0  0  0
    0.0922   52.4765   21.4094 C   0  0  0  0  0  0  0  0  0  0  0  0
   -0.6385   51.4343   22.1991 C   0  0  0  0  0  0  0  0  0  0  0  0
   -1.6209   51.7880   22.8709 O   0  0  0  0  0  0  0  0  0  0  0  0
   -0.3927   50.1863   21.9613 O   0  0  0  0  0  0  0  0  0  0  0  0
   -1.4234   51.3527   18.0834 C   0  0  0  0  0  0  0  0  0  0  0  0
   -0.8894   51.1690   16.9692 O   0  0  0  0  0  0  0  0  0  0  0  0
   -2.7063   51.7216   18.1908 N   0  0  0  0  0  0  0  0  0  0  0  0
   -3.5475   51.7787   19.4000 C   0  0  0  0  0  0  0  0  0  0  0  0
   -4.9498   51.8286   18.8878 C   0  0  0  0  0  0  0  0  0  0  0  0
   -4.8842   52.4589   17.5464 C   0  0  0  0  0  0  0  0  0  0  0  0
   -3.4403   52.2860   17.0276 C   0  0  2  0  0  0  0  0  0  0  0  0
   -3.4040   51.3146   15.8176 C   0  0  0  0  0  0  0  0  0  0  0  0
   -2.2577   50.6803   15.5869 N   0  0  0  0  0  0  0  0  0  0  0  0
   -4.4459   51.0113   15.2369 O   0  0  0  0  0  0  0  0  0  0  0  0
    3.9367   49.4287   17.7953 C   0  0  2  0  0  0  0  0  0  0  0  0
    3.3608   49.8556   16.4928 C   0  0  0  0  0  0  0  0  0  0  0  0
    4.3944   48.0681   17.7339 O   0  0  0  0  0  0  0  0  0  0  0  0
 47 49  2  0
 47 48  1  0
 47 46  1  0
 45 46  1  6
 45 43  1  0
 45 50  1  0
 43 44  2  0
 43 42  1  0
 50 51  1  6
 50 52  1  0
 42 38  1  0
 42 41  1  0
 38 36  1  1
 38 39  1  0
 36 37  2  0
 36 35  1  0
 39 40  1  0
 40 41  1  0
 35 30  1  0
 30 28  1  0
 30 31  1  6
 28 29  2  0
 28 27  1  0
 31 32  1  0
 32 33  1  1
 32 34  1  0
 27 18  1  0
 18 16  1  0
 18 19  1  1
 16 17  2  0
 16 15  1  0
 19 20  1  0
 20 21  1  0
 21 22  1  0
 22 23  1  0
 23 25  2  0
 23 24  1  0
 15 13  1  0
 13 11  1  0
 13 14  1  1
 11 12  2  0
 11 10  1  0
 10  9  1  0
  9 53  1  0
  9  8  1  1
 53 54  2  0
 53 55  1  0
  8  7  1  0
  7  6  1  0
  6  5  1  0
  5  3  1  0
  3  4  1  0
  3  2  2  0
 55 56  1  0
 56 61  1  0
 56 57  1  6
 61 62  2  0
 61 63  1  0
 57 58  1  0
 58 60  2  0
 58 59  1  0
 63 64  1  0
 64 69  1  0
 64 65  1  1
 69 70  2  0
 69 71  1  0
 65 66  1  0
 66 67  1  1
 66 68  1  0
 71 75  1  0
 71 72  1  0
 75 76  1  6
 75 74  1  0
 76 77  2  0
 76 78  1  0
 74 73  1  0
 73 72  1  0
 78 82  1  0
 78 79  1  0
 82 83  1  1
 82 81  1  0
 83 84  2  0
 83 85  1  0
 81 80  1  0
 80 79  1  0
 85 86  1  0
 86 89  1  0
 86 87  1  1
 89 90  2  0
 89 91  1  0
 87 88  1  0
 91 92  1  0
 92100  1  0
 92 93  1  1
100101  2  0
100102  1  0
 93 94  1  0
 94 95  4  0
 94 99  4  0
 95 96  4  0
 99 98  4  0
 96 97  4  0
 98 97  4  0
102103  1  0
103111  1  0
103104  1  1
111112  2  0
111113  1  0
104105  1  0
105106  4  0
105110  4  0
106107  4  0
110109  4  0
107108  4  0
109108  4  0
114113  1  6
114115  1  0
114134  1  0
115116  2  0
115117  1  0
134136  1  0
134135  1  1
117118  1  0
118124  1  0
118119  1  6
124125  2  0
124126  1  0
119120  1  0
120121  1  0
121122  2  0
121123  1  0
126130  1  0
126127  1  0
130131  1  1
130129  1  0
131133  2  0
131132  1  0
129128  1  0
128127  1  0
 25 26  1  0
  2  1  1  0
M  END
$$$$
