
     RDKit          3D

 23 26  0  0  0  0  0  0  0  0999 V2000
   35.7680   -1.3420   34.8800 C   0  0  0  0  0  0  0  0  0  0  0  0
   34.5850   -0.7500   35.5720 C   0  0  0  0  0  0  0  0  0  0  0  0
   33.7960   -1.6680   36.1850 N   0  0  0  0  0  0  0  0  0  0  0  0
   32.7860   -1.0970   36.7560 C   0  0  0  0  0  0  0  0  0  0  0  0
   31.6150   -1.7240   36.8960 N   0  0  0  0  0  0  0  0  0  0  0  0
   30.6070   -1.5150   37.9150 C   0  0  0  0  0  0  0  0  0  0  0  0
   29.3630   -1.3730   37.0970 C   0  0  0  0  0  0  0  0  0  0  0  0
   29.0050   -2.2880   36.1050 C   0  0  0  0  0  0  0  0  0  0  0  0
   28.0930   -1.9400   35.1170 C   0  0  0  0  0  0  0  0  0  0  0  0
   27.6010   -0.6450   35.0460 C   0  0  0  0  0  0  0  0  0  0  0  0
   28.0820    0.2820   35.9550 C   0  0  0  0  0  0  0  0  0  0  0  0
   29.0430   -0.0380   36.8820 C   0  0  0  0  0  0  0  0  0  0  0  0
   29.3140    1.0450   37.6950 O   0  0  0  0  0  0  0  0  0  0  0  0
   28.5670    2.1300   37.1360 C   0  0  0  0  0  0  0  0  0  0  0  0
   27.7760    1.6240   36.0540 O   0  0  0  0  0  0  0  0  0  0  0  0
   32.9590    0.6240   36.9690 S   0  0  0  0  0  0  0  0  0  0  0  0
   34.4120    0.5450   36.0080 C   0  0  0  0  0  0  0  0  0  0  0  0
   35.5270    1.3120   35.8240 C   0  0  0  0  0  0  0  0  0  0  0  0
   36.6690    0.9200   35.0290 C   0  0  0  0  0  0  0  0  0  0  0  0
   37.3830    2.0530   34.8460 C   0  0  0  0  0  0  0  0  0  0  0  0
   36.7030    3.0380   35.4690 N   0  0  0  0  0  0  0  0  0  0  0  0
   37.0830    4.4370   35.5810 C   0  0  0  0  0  0  0  0  0  0  0  0
   35.4890    2.6470   35.9200 N   0  0  0  0  0  0  0  0  0  0  0  0
  2 17  2  0
  3  2  1  0
  2  1  1  0
  4 16  1  0
  4  3  2  0
  5  4  1  0
  6  5  1  0
  7  6  1  0
 11 10  2  0
 10  9  1  0
 12 11  1  0
 11 15  1  0
 15 14  1  0
 14 13  1  0
  7 12  2  0
 12 13  1  0
 17 18  1  0
 16 17  1  0
 18 19  1  0
 18 23  2  0
 19 20  2  0
 20 21  1  0
 21 22  1  0
 23 21  1  0
  7  8  1  0
  8  9  2  0
M  END
$$$$
