
     RDKit          3D

 23 26  0  0  0  0  0  0  0  0999 V2000
   37.2469   -0.9523   35.7183 C   0  0  0  0  0  0  0  0  0  0  0  0
   35.7808   -0.6971   35.8671 C   0  0  0  0  0  0  0  0  0  0  0  0
   34.9977   -1.8133   36.0811 N   0  0  0  0  0  0  0  0  0  0  0  0
   33.7569   -1.5095   36.1829 C   0  0  0  0  0  0  0  0  0  0  0  0
   32.7900   -2.4276   36.3515 N   0  0  0  0  0  0  0  0  0  0  0  0
   31.6927   -2.4738   37.2102 C   0  0  0  0  0  0  0  0  0  0  0  0
   30.6293   -1.7894   36.4647 C   0  0  0  0  0  0  0  0  0  0  0  0
   29.4965   -2.4209   35.9706 C   0  0  0  0  0  0  0  0  0  0  0  0
   28.2622   -1.7981   35.9242 C   0  0  0  0  0  0  0  0  0  0  0  0
   28.1422   -0.4662   36.3507 C   0  0  0  0  0  0  0  0  0  0  0  0
   29.2921    0.2034   36.7458 C   0  0  0  0  0  0  0  0  0  0  0  0
   30.5215   -0.4372   36.8080 C   0  0  0  0  0  0  0  0  0  0  0  0
   31.5114    0.4724   37.1088 O   0  0  0  0  0  0  0  0  0  0  0  0
   30.8568    1.7328   37.1023 C   0  0  0  0  0  0  0  0  0  0  0  0
   29.4306    1.5317   36.8984 O   0  0  0  0  0  0  0  0  0  0  0  0
   33.4639    0.2073   36.4847 S   0  0  0  0  0  0  0  0  0  0  0  0
   35.1568    0.4968   36.2631 C   0  0  0  0  0  0  0  0  0  0  0  0
   35.9709    1.5729   36.1551 C   0  0  0  0  0  0  0  0  0  0  0  0
   36.5305    1.9690   34.8126 C   0  0  0  0  0  0  0  0  0  0  0  0
   37.8364    2.0724   35.0304 C   0  0  0  0  0  0  0  0  0  0  0  0
   38.0238    1.9913   36.3322 N   0  0  0  0  0  0  0  0  0  0  0  0
   39.3152    2.0001   37.1044 C   0  0  0  0  0  0  0  0  0  0  0  0
   36.8955    1.9370   37.0572 N   0  0  0  0  0  0  0  0  0  0  0  0
  2 17  4  0
  3  2  4  0
  2  1  1  0
  4 16  4  0
  4  3  4  0
  5  4  1  0
  6  5  1  0
  7  6  1  0
 11 10  4  0
 10  9  4  0
 12 11  4  0
 11 15  1  0
 15 14  1  0
 14 13  1  0
  7 12  4  0
 12 13  1  0
 17 18  1  0
 16 17  4  0
 18 19  4  0
 18 23  4  0
 19 20  4  0
 20 21  4  0
 21 22  1  0
 23 21  4  0
  7  8  4  0
  8  9  4  0
M  END
$$$$
