
     RDKit          3D

 29 32  0  0  0  0  0  0  0  0999 V2000
    6.2889   21.9892   23.6298 O   0  0  0  0  0  0  0  0  0  0  0  0
    6.5471   22.3819   24.7359 C   0  0  0  0  0  0  0  0  0  0  0  0
    6.9239   21.3844   25.7056 N   0  0  0  0  0  0  0  0  0  0  0  0
    6.3498   21.4549   27.0219 C   0  0  0  0  0  0  0  0  0  0  0  0
    7.3273   21.8967   28.1010 C   0  0  0  0  0  0  0  0  0  0  0  0
    6.9806   21.6222   29.4417 C   0  0  0  0  0  0  0  0  0  0  0  0
    7.8461   21.9612   30.3933 C   0  0  0  0  0  0  0  0  0  0  0  0
    8.9676   22.7846   30.1145 C   0  0  0  0  0  0  0  0  0  0  0  0
    9.4344   23.7150   31.0393 O   0  0  0  0  0  0  0  0  0  0  0  0
    9.6506   23.2030   32.3335 C   0  0  0  0  0  0  0  0  0  0  0  0
    9.0860   21.9755   32.6546 C   0  0  0  0  0  0  0  0  0  0  0  0
    9.2540   21.4646   33.9285 C   0  0  0  0  0  0  0  0  0  0  0  0
    9.9386   22.1694   34.8597 C   0  0  0  0  0  0  0  0  0  0  0  0
   10.5923   23.3944   34.5244 C   0  0  0  0  0  0  0  0  0  0  0  0
   10.3696   23.9129   33.2670 C   0  0  0  0  0  0  0  0  0  0  0  0
    9.3675   22.9352   28.7995 C   0  0  0  0  0  0  0  0  0  0  0  0
    8.4985   22.5169   27.7493 C   0  0  0  0  0  0  0  0  0  0  0  0
    5.8893   23.6812   25.2520 C   0  0  0  0  0  0  0  0  0  0  0  0
    4.5163   23.6616   25.4298 C   0  0  0  0  0  0  0  0  0  0  0  0
    3.8003   24.6995   25.0128 N   0  0  0  0  0  0  0  0  0  0  0  0
    4.3821   25.6522   24.2457 C   0  0  0  0  0  0  0  0  0  0  0  0
    3.8914   25.7150   22.8823 N   0  0  0  0  0  0  0  0  0  0  0  0
    4.1528   26.7425   22.0744 C   0  0  0  0  0  0  0  0  0  0  0  0
    4.2586   26.2083   20.8275 C   0  0  0  0  0  0  0  0  0  0  0  0
    3.9551   24.8684   20.8643 C   0  0  0  0  0  0  0  0  0  0  0  0
    3.5609   24.6121   22.1050 N   0  0  0  0  0  0  0  0  0  0  0  0
    5.6502   25.8944   24.4578 N   0  0  0  0  0  0  0  0  0  0  0  0
    6.4544   24.9088   24.8353 C   0  0  0  0  0  0  0  0  0  0  0  0
    7.8072   24.9411   24.7165 O   0  0  0  0  0  0  0  0  0  0  0  0
  2 18  1  0
  3  2  1  0
  2  1  2  0
 18 19  4  0
 18 28  4  0
 19 20  4  0
 20 21  4  0
 21 22  1  0
 27 21  4  0
 24 25  4  0
 25 26  4  0
 23 24  4  0
 22 23  4  0
 28 27  4  0
 28 29  2  0
  5  4  1  0
  4  3  1  0
  6  5  4  0
 17  5  4  0
  7  6  4  0
  8  7  4  0
 16 17  4  0
  8 16  4  0
  9  8  1  0
 10 11  4  0
 10 15  4  0
 10  9  1  0
 11 12  4  0
 12 13  4  0
 13 14  4  0
 14 15  4  0
 22 26  4  0
M  END
$$$$
