
     RDKit          3D

 16 18  0  0  0  0  0  0  0  0999 V2000
    3.7380   11.7770   27.9360 O   0  0  0  0  0  0  0  0  0  0  0  0
    4.5780   11.5310   27.0240 C   0  0  0  0  0  0  0  0  0  0  0  0
    4.5010   12.2240   25.8580 C   0  0  0  0  0  0  0  0  0  0  0  0
    5.2620   12.1730   24.7390 C   0  0  0  0  0  0  0  0  0  0  0  0
    6.3510   11.4530   24.3450 C   0  0  0  0  0  0  0  0  0  0  0  0
    7.0390   10.5180   24.9790 C   0  0  0  0  0  0  0  0  0  0  0  0
    6.6710   10.0940   26.3330 C   0  0  0  0  0  0  0  0  0  0  0  0
    7.4170    9.1370   26.8960 N   0  0  0  0  0  0  0  0  0  0  0  0
    6.8790    8.9230   28.1260 C   0  0  0  0  0  0  0  0  0  0  0  0
    7.2390    8.0540   29.1460 C   0  0  0  0  0  0  0  0  0  0  0  0
    8.6480    6.9410   28.9540 Cl  0  0  0  0  0  0  0  0  0  0  0  0
    6.5180    8.0410   30.3290 C   0  0  0  0  0  0  0  0  0  0  0  0
    5.4360    8.8930   30.4990 C   0  0  0  0  0  0  0  0  0  0  0  0
    5.0670    9.7630   29.4930 C   0  0  0  0  0  0  0  0  0  0  0  0
    5.7790    9.7610   28.3240 C   0  0  0  0  0  0  0  0  0  0  0  0
    5.6510   10.5020   27.1810 C   0  0  0  0  0  0  0  0  0  0  0  0
 16  2  1  0
 16 15  1  0
 16  7  2  0
  2  3  1  0
  2  1  2  0
  3  4  2  0
 15 14  2  0
 15  9  1  0
 14 13  1  0
 13 12  2  0
 12 10  1  0
 10  9  2  0
 10 11  1  0
  9  8  1  0
  4  5  1  0
  5  6  2  0
  6  7  1  0
  7  8  1  0
M  END
$$$$
