
     RDKit          3D

 16 18  0  0  0  0  0  0  0  0999 V2000
    3.2743   12.0684   28.3598 O   0  0  0  0  0  0  0  0  0  0  0  0
    4.1469   11.9423   27.4371 C   0  0  0  0  0  0  0  0  0  0  0  0
    4.1265   12.7385   26.3505 C   0  0  0  0  0  0  0  0  0  0  0  0
    4.6337   12.6303   25.1262 C   0  0  0  0  0  0  0  0  0  0  0  0
    5.4464   11.6722   24.5267 C   0  0  0  0  0  0  0  0  0  0  0  0
    6.0455   10.5752   25.0413 C   0  0  0  0  0  0  0  0  0  0  0  0
    5.8214   10.1741   26.4067 C   0  0  0  0  0  0  0  0  0  0  0  0
    6.5500    9.1555   26.9065 N   0  0  0  0  0  0  0  0  0  0  0  0
    6.2390    9.0450   28.1831 C   0  0  0  0  0  0  0  0  0  0  0  0
    6.6282    8.0968   29.1386 C   0  0  0  0  0  0  0  0  0  0  0  0
    7.9351    6.9156   28.7754 Cl  0  0  0  0  0  0  0  0  0  0  0  0
    5.9897    8.0536   30.3835 C   0  0  0  0  0  0  0  0  0  0  0  0
    5.0392    9.0012   30.6623 C   0  0  0  0  0  0  0  0  0  0  0  0
    4.6665    9.9789   29.7728 C   0  0  0  0  0  0  0  0  0  0  0  0
    5.2684    9.9963   28.5585 C   0  0  0  0  0  0  0  0  0  0  0  0
    5.0591   10.7390   27.4321 C   0  0  0  0  0  0  0  0  0  0  0  0
 16  2  4  0
 16 15  4  0
 16  7  4  0
  2  3  4  0
  2  1  2  0
  3  4  4  0
 15 14  4  0
 15  9  4  0
 14 13  4  0
 13 12  4  0
 12 10  4  0
 10  9  4  0
 10 11  1  0
  9  8  4  0
  4  5  4  0
  5  6  4  0
  6  7  4  0
  7  8  4  0
M  END
$$$$
