
     RDKit          3D

 45 50  0  0  0  0  0  0  0  0999 V2000
   28.3620  -14.2250   14.2180 C   0  0  0  0  0  0  0  0  0  0  0  0
   28.9230  -13.6820   15.4370 O   0  0  0  0  0  0  0  0  0  0  0  0
   29.5320  -12.4150   15.4000 C   0  0  0  0  0  0  0  0  0  0  0  0
   29.9170  -11.8420   14.2470 N   0  0  0  0  0  0  0  0  0  0  0  0
   30.5270  -10.6330   14.2250 C   0  0  0  0  0  0  0  0  0  0  0  0
   30.8810  -10.0380   13.0540 N   0  0  0  0  0  0  0  0  0  0  0  0
   30.6530  -10.5660   11.8100 C   0  0  0  0  0  0  0  0  0  0  0  0
   29.4320  -11.2060   11.4910 C   0  0  0  0  0  0  0  0  0  0  0  0
   29.2260  -11.6970   10.1950 C   0  0  0  0  0  0  0  0  0  0  0  0
   27.7190  -12.5510    9.8010 S   0  0  2  0  0  0  0  0  0  0  0  0
   26.6840  -11.1830    9.2120 C   0  0  0  0  0  0  0  0  0  0  0  0
   27.1610  -13.0860   11.0040 O   0  0  0  0  0  0  0  0  0  0  0  0
   28.0490  -13.4390    8.7170 O   0  0  0  0  0  0  0  0  0  0  0  0
   30.2200  -11.5390    9.2160 C   0  0  0  0  0  0  0  0  0  0  0  0
   31.3990  -10.8480    9.5000 C   0  0  0  0  0  0  0  0  0  0  0  0
   31.6300  -10.4020   10.8160 C   0  0  0  0  0  0  0  0  0  0  0  0
   32.7830   -9.8200   11.1780 N   0  0  0  0  0  0  0  0  0  0  0  0
   33.8640   -9.5530   10.2490 C   0  0  1  0  0  0  0  0  0  0  0  0
   33.6440   -8.2980    9.3730 C   0  0  0  0  0  0  0  0  0  0  0  0
   33.1720   -7.0600    9.8500 C   0  0  0  0  0  0  0  0  0  0  0  0
   33.0270   -5.9220    9.0170 C   0  0  0  0  0  0  0  0  0  0  0  0
   33.2510   -6.0140    7.6360 C   0  0  0  0  0  0  0  0  0  0  0  0
   33.6450   -7.2780    7.1530 C   0  0  0  0  0  0  0  0  0  0  0  0
   33.8530   -8.3540    7.9860 C   0  0  0  0  0  0  0  0  0  0  0  0
   34.2220   -9.4800    7.2840 O   0  0  0  0  0  0  0  0  0  0  0  0
   34.4590   -8.9160    5.9710 C   0  0  1  0  0  0  0  0  0  0  0  0
   35.7320   -9.0510    5.6090 F   0  0  0  0  0  0  0  0  0  0  0  0
   33.8020   -9.6780    5.0790 F   0  0  0  0  0  0  0  0  0  0  0  0
   33.9980   -7.5400    5.8380 O   0  0  0  0  0  0  0  0  0  0  0  0
   35.1570   -9.3020   11.0360 C   0  0  0  0  0  0  0  0  0  0  0  0
   35.0960   -8.5720   12.1820 N   0  0  0  0  0  0  0  0  0  0  0  0
   36.2120   -8.2340   12.8730 C   0  0  0  0  0  0  0  0  0  0  0  0
   37.4900   -8.6490   12.4360 C   0  0  0  0  0  0  0  0  0  0  0  0
   37.5950   -9.4300   11.2720 C   0  0  0  0  0  0  0  0  0  0  0  0
   36.4280   -9.7300   10.5590 C   0  0  0  0  0  0  0  0  0  0  0  0
   36.5600  -10.6640    9.0940 Cl  0  0  0  0  0  0  0  0  0  0  0  0
   30.7920  -10.0100   15.3900 N   0  0  0  0  0  0  0  0  0  0  0  0
   30.4270  -10.5390   16.5790 C   0  0  0  0  0  0  0  0  0  0  0  0
   30.7420   -9.8970   17.7510 N   0  0  0  0  0  0  0  0  0  0  0  0
   31.3500   -8.5580   17.8080 C   0  0  0  0  0  0  0  0  0  0  0  0
   32.8100   -8.7710   18.3360 C   0  0  0  0  0  0  0  0  0  0  0  0
   32.9140   -9.6300   19.5640 N   0  0  0  0  0  0  0  0  0  0  0  0
   32.0020  -10.8140   19.6800 C   0  0  0  0  0  0  0  0  0  0  0  0
   30.5850  -10.5630   19.0710 C   0  0  0  0  0  0  0  0  0  0  0  0
   29.8260  -11.7690   16.5540 N   0  0  0  0  0  0  0  0  0  0  0  0
 16 15  2  0
  7 16  1  0
 16 17  1  0
 15 14  1  0
  9 14  2  0
 40 41  1  0
 39 40  1  0
 41 42  1  0
 44 43  1  0
 43 42  1  0
 39 44  1  0
 10 11  1  6
 18 19  1  0
 18 30  1  0
 18 17  1  1
 19 24  2  0
 19 20  1  0
 24 23  1  0
 24 25  1  0
 23 22  2  0
 23 29  1  0
 21 22  1  0
 20 21  2  0
 30 35  2  0
 30 31  1  0
 35 34  1  0
 35 36  1  0
 34 33  2  0
 32 33  1  0
 31 32  2  0
 25 26  1  0
 26 29  1  0
 26 27  1  6
 26 28  1  0
  8  9  1  0
  9 10  1  0
  7  8  2  0
  6  7  1  0
  5  6  1  0
 10 12  2  0
 10 13  2  0
 37  5  2  0
  5  4  1  0
 38 37  1  0
 38 45  2  0
 38 39  1  0
 45  3  1  0
  3  4  2  0
  3  2  1  0
  2  1  1  0
M  CHG  1  42   1
M  END
$$$$
