
     RDKit          3D

 40 44  0  0  0  0  0  0  0  0999 V2000
   27.2470  -13.8650   14.0420 C   0  0  0  0  0  0  0  0  0  0  0  0
   27.9670  -13.4540   15.2250 O   0  0  0  0  0  0  0  0  0  0  0  0
   28.7200  -12.2690   15.2180 C   0  0  0  0  0  0  0  0  0  0  0  0
   29.0670  -11.6410   16.3670 N   0  0  0  0  0  0  0  0  0  0  0  0
   29.7850  -10.4870   16.3440 C   0  0  0  0  0  0  0  0  0  0  0  0
   30.1000   -9.8500   17.4940 N   0  0  0  0  0  0  0  0  0  0  0  0
   30.2060   -9.9820   15.1580 N   0  0  0  0  0  0  0  0  0  0  0  0
   29.8650  -10.6010   14.0080 C   0  0  0  0  0  0  0  0  0  0  0  0
   30.2860  -10.1020   12.8320 N   0  0  0  0  0  0  0  0  0  0  0  0
   30.0470  -10.6320   11.6010 C   0  0  0  0  0  0  0  0  0  0  0  0
   28.7910  -11.1750   11.2380 C   0  0  0  0  0  0  0  0  0  0  0  0
   28.5830  -11.5910    9.9170 C   0  0  0  0  0  0  0  0  0  0  0  0
   27.0100  -12.2660    9.4700 S   0  0  1  0  0  0  0  0  0  0  0  0
   26.4230  -11.0150    8.5710 N   0  0  0  0  0  0  0  0  0  0  0  0
   27.2490  -13.4400    8.6610 O   0  0  0  0  0  0  0  0  0  0  0  0
   26.1660  -12.3670   10.6300 O   0  0  0  0  0  0  0  0  0  0  0  0
   29.6090  -11.5060    8.9600 C   0  0  0  0  0  0  0  0  0  0  0  0
   30.8600  -11.0000    9.3210 C   0  0  0  0  0  0  0  0  0  0  0  0
   31.0790  -10.5480   10.6390 C   0  0  0  0  0  0  0  0  0  0  0  0
   32.2660  -10.0490   11.0420 N   0  0  0  0  0  0  0  0  0  0  0  0
   33.3770   -9.7510   10.1490 C   0  0  1  0  0  0  0  0  0  0  0  0
   33.1450   -8.5120    9.2570 C   0  0  0  0  0  0  0  0  0  0  0  0
   32.6030   -7.3010    9.7430 C   0  0  0  0  0  0  0  0  0  0  0  0
   32.4220   -6.1840    8.8860 C   0  0  0  0  0  0  0  0  0  0  0  0
   32.7240   -6.2500    7.5060 C   0  0  0  0  0  0  0  0  0  0  0  0
   33.1490   -7.4960    7.0010 C   0  0  0  0  0  0  0  0  0  0  0  0
   33.3920   -8.5590    7.8580 C   0  0  0  0  0  0  0  0  0  0  0  0
   33.8310   -9.6640    7.1560 O   0  0  0  0  0  0  0  0  0  0  0  0
   34.0050   -9.1180    5.8330 C   0  0  1  0  0  0  0  0  0  0  0  0
   35.2890   -9.2370    5.4790 F   0  0  0  0  0  0  0  0  0  0  0  0
   33.3010   -9.9210    5.0170 F   0  0  0  0  0  0  0  0  0  0  0  0
   33.5120   -7.7550    5.6700 O   0  0  0  0  0  0  0  0  0  0  0  0
   34.6480   -9.4680   10.9550 C   0  0  0  0  0  0  0  0  0  0  0  0
   34.5650   -8.7230   12.0850 N   0  0  0  0  0  0  0  0  0  0  0  0
   35.6650   -8.3760   12.8120 C   0  0  0  0  0  0  0  0  0  0  0  0
   36.9530   -8.7640   12.3940 C   0  0  0  0  0  0  0  0  0  0  0  0
   37.0850   -9.5480   11.2290 C   0  0  0  0  0  0  0  0  0  0  0  0
   35.9290   -9.8670   10.5050 C   0  0  0  0  0  0  0  0  0  0  0  0
   36.0850  -10.8330    9.0750 Cl  0  0  0  0  0  0  0  0  0  0  0  0
   29.1620  -11.7540   14.0480 N   0  0  0  0  0  0  0  0  0  0  0  0
 19 18  2  0
 19 10  1  0
 20 19  1  0
 18 17  1  0
 17 12  2  0
 21 22  1  0
 21 33  1  0
 21 20  1  1
 22 27  2  0
 22 23  1  0
 27 26  1  0
 27 28  1  0
 26 25  2  0
 26 32  1  0
 25 24  1  0
 24 23  2  0
 33 38  2  0
 33 34  1  0
 38 37  1  0
 38 39  1  0
 37 36  2  0
 36 35  1  0
 35 34  2  0
 28 29  1  0
 29 32  1  0
 29 30  1  6
 29 31  1  0
 12 11  1  0
 12 13  1  0
 11 10  2  0
 10  9  1  0
  9  8  1  0
 13 15  2  0
 13 16  2  0
 13 14  1  6
  8  7  2  0
  8 40  1  0
  7  5  1  0
  5  4  2  0
  5  6  1  0
  4  3  1  0
  3 40  2  0
  3  2  1  0
  2  1  1  0
M  END
$$$$
