
     RDKit          3D

 40 44  0  0  0  0  0  0  0  0999 V2000
   40.0635   -8.7398   11.4435 C   0  0  0  0  0  0  0  0  0  0  0  0
   40.6680   -7.4194   11.4004 O   0  0  0  0  0  0  0  0  0  0  0  0
   40.4589   -6.4497   12.3473 C   0  0  0  0  0  0  0  0  0  0  0  0
   40.5081   -6.7945   13.7007 N   0  0  0  0  0  0  0  0  0  0  0  0
   39.6264   -6.2650   14.5672 C   0  0  0  0  0  0  0  0  0  0  0  0
   39.7186   -6.5914   15.8761 N   0  0  0  0  0  0  0  0  0  0  0  0
   38.8061   -5.2148   14.1930 N   0  0  0  0  0  0  0  0  0  0  0  0
   38.6926   -4.9719   12.8416 C   0  0  0  0  0  0  0  0  0  0  0  0
   37.4375   -4.9445   12.2732 N   0  0  0  0  0  0  0  0  0  0  0  0
   37.0992   -5.7715   11.2571 C   0  0  0  0  0  0  0  0  0  0  0  0
   38.0476   -6.3848   10.3950 C   0  0  0  0  0  0  0  0  0  0  0  0
   37.6179   -6.8090    9.1321 C   0  0  0  0  0  0  0  0  0  0  0  0
   37.8981   -8.5100    8.7216 S   0  0  2  0  0  0  0  0  0  0  0  0
   36.3494   -8.9707    8.3221 N   0  0  0  0  0  0  0  0  0  0  0  0
   38.3680   -9.1890    9.9275 O   0  0  0  0  0  0  0  0  0  0  0  0
   38.6870   -8.6293    7.5138 O   0  0  0  0  0  0  0  0  0  0  0  0
   36.4960   -6.2400    8.5349 C   0  0  0  0  0  0  0  0  0  0  0  0
   35.5529   -5.4997    9.3476 C   0  0  0  0  0  0  0  0  0  0  0  0
   35.7716   -5.6461   10.7720 C   0  0  0  0  0  0  0  0  0  0  0  0
   34.8424   -6.3397   11.4692 N   0  0  0  0  0  0  0  0  0  0  0  0
   34.2543   -7.5763   10.9556 C   0  0  1  0  0  0  0  0  0  0  0  0
   34.2342   -8.7761   11.9360 C   0  0  0  0  0  0  0  0  0  0  0  0
   34.9320   -8.7433   13.1773 C   0  0  0  0  0  0  0  0  0  0  0  0
   34.3366   -9.2379   14.3621 C   0  0  0  0  0  0  0  0  0  0  0  0
   33.0942   -9.9434   14.3469 C   0  0  0  0  0  0  0  0  0  0  0  0
   32.5275  -10.1461   13.0635 C   0  0  0  0  0  0  0  0  0  0  0  0
   33.1197   -9.6987   11.9251 C   0  0  0  0  0  0  0  0  0  0  0  0
   32.7980  -10.4912   10.8291 O   0  0  0  0  0  0  0  0  0  0  0  0
   31.6992  -11.2666   11.3837 C   0  0  2  0  0  0  0  0  0  0  0  0
   31.8998  -12.5368   11.1007 F   0  0  0  0  0  0  0  0  0  0  0  0
   30.5875  -10.8739   10.6809 F   0  0  0  0  0  0  0  0  0  0  0  0
   31.4650  -11.0222   12.8171 O   0  0  0  0  0  0  0  0  0  0  0  0
   32.8171   -7.3484   10.5405 C   0  0  0  0  0  0  0  0  0  0  0  0
   32.1050   -6.3621   11.2205 N   0  0  0  0  0  0  0  0  0  0  0  0
   30.9333   -6.6945   11.8572 C   0  0  0  0  0  0  0  0  0  0  0  0
   30.2277   -7.8685   11.5428 C   0  0  0  0  0  0  0  0  0  0  0  0
   30.8099   -8.7903   10.6347 C   0  0  0  0  0  0  0  0  0  0  0  0
   32.0300   -8.4141    9.9859 C   0  0  0  0  0  0  0  0  0  0  0  0
   32.1408   -8.7955    8.3198 Cl  0  0  0  0  0  0  0  0  0  0  0  0
   39.7468   -5.3525   12.0617 N   0  0  0  0  0  0  0  0  0  0  0  0
 19 18  4  0
 19 10  4  0
 20 19  1  0
 18 17  4  0
 17 12  4  0
 21 22  1  0
 21 33  1  0
 21 20  1  1
 22 27  4  0
 22 23  4  0
 27 26  4  0
 27 28  1  0
 26 25  4  0
 26 32  1  0
 25 24  4  0
 24 23  4  0
 33 38  4  0
 33 34  4  0
 38 37  4  0
 38 39  1  0
 37 36  4  0
 36 35  4  0
 35 34  4  0
 28 29  1  0
 29 32  1  0
 29 30  1  6
 29 31  1  0
 12 11  4  0
 12 13  1  0
 11 10  4  0
 10  9  1  0
  9  8  1  0
 13 15  2  0
 13 16  2  0
 13 14  1  1
  8  7  4  0
  8 40  4  0
  7  5  4  0
  5  4  4  0
  5  6  1  0
  4  3  4  0
  3 40  4  0
  3  2  1  0
  2  1  1  0
M  END
$$$$
