
     RDKit          3D

 14 13  0  0  0  0  0  0  0  0999 V2000
   18.0160   40.9240   34.7130 C   0  0  0  0  0  0  0  0  0  0  0  0
   19.3280   40.2990   34.2170 C   0  0  1  0  0  0  0  0  0  0  0  0
   19.2690   38.9040   34.2980 O   0  0  0  0  0  0  0  0  0  0  0  0
   19.5650   40.6370   32.8870 O   0  0  0  0  0  0  0  0  0  0  0  0
   20.5480   40.7580   35.0410 C   0  0  0  0  0  0  0  0  0  0  0  0
   21.9170   40.3920   34.4530 C   0  0  0  0  0  0  0  0  0  0  0  0
   23.0210   40.2260   35.5180 C   0  0  0  0  0  0  0  0  0  0  0  0
   24.4430   40.4100   34.9650 C   0  0  0  0  0  0  0  0  0  0  0  0
   25.5420   39.6730   35.7740 C   0  0  0  0  0  0  0  0  0  0  0  0
   26.8620   40.3520   35.6750 N   0  0  0  0  0  0  0  0  0  0  0  0
   27.6410   40.0280   34.4490 C   0  0  0  0  0  0  0  0  0  0  0  0
   28.8590   40.9660   34.2770 C   0  0  0  0  0  0  0  0  0  0  0  0
   29.0510   41.3940   32.7970 C   0  0  0  0  0  0  0  0  0  0  0  0
   30.4370   41.8210   32.5560 N   0  0  0  0  0  0  0  0  0  0  0  0
 11 12  1  0
 10 11  1  0
 12 13  1  0
 13 14  1  0
  2  1  1  1
  5  2  1  0
  2  3  1  0
  2  4  1  0
  6  5  1  0
  7  6  1  0
  8  7  1  0
  9  8  1  0
  9 10  1  0
M  CHG  2  10   1  14   1
M  END
$$$$
