
     RDKit          3D

 14 13  0  0  0  0  0  0  0  0999 V2000
   19.1775   40.8402   35.7301 C   0  0  0  0  0  0  0  0  0  0  0  0
   19.6438   40.3736   34.3356 C   0  0  2  0  0  0  0  0  0  0  0  0
   18.9604   41.0416   33.3083 O   0  0  0  0  0  0  0  0  0  0  0  0
   19.4196   39.0149   34.1888 O   0  0  0  0  0  0  0  0  0  0  0  0
   21.1479   40.6497   34.0779 C   0  0  0  0  0  0  0  0  0  0  0  0
   22.0471   40.3289   35.3661 C   0  0  0  0  0  0  0  0  0  0  0  0
   23.0050   39.1067   35.1499 C   0  0  0  0  0  0  0  0  0  0  0  0
   24.3480   39.4660   34.4679 C   0  0  0  0  0  0  0  0  0  0  0  0
   25.5462   39.2970   35.4044 C   0  0  0  0  0  0  0  0  0  0  0  0
   26.8497   39.3856   34.5970 N   0  0  0  0  0  0  0  0  0  0  0  0
   28.0355   38.9111   35.4070 C   0  0  0  0  0  0  0  0  0  0  0  0
   29.3304   39.7049   34.9512 C   0  0  0  0  0  0  0  0  0  0  0  0
   30.5706   38.8339   35.1253 C   0  0  0  0  0  0  0  0  0  0  0  0
   31.8025   39.5990   35.1157 N   0  0  0  0  0  0  0  0  0  0  0  0
 11 12  1  0
 10 11  1  0
 12 13  1  0
 13 14  1  0
  2  1  1  6
  5  2  1  0
  2  3  1  0
  2  4  1  0
  6  5  1  0
  7  6  1  0
  8  7  1  0
  9  8  1  0
  9 10  1  0
M  CHG  2  10   1  14   1
M  END
$$$$
