
     RDKit          3D

 16 15  0  0  0  0  0  0  0  0999 V2000
  -18.6568  -40.2210   33.8116 C   0  0  0  0  0  0  0  0  0  0  0  0
  -18.8010  -40.7486   35.1025 O   0  0  0  0  0  0  0  0  0  0  0  0
  -20.0217  -40.3770   35.6811 C   0  0  0  0  0  0  0  0  0  0  0  0
  -21.1342  -40.4325   34.5499 C   0  0  2  0  0  0  0  0  0  0  0  0
  -20.9205  -41.4967   33.7349 O   0  0  0  0  0  0  0  0  0  0  0  0
  -21.1918  -39.2565   33.8152 O   0  0  0  0  0  0  0  0  0  0  0  0
  -22.4301  -40.4761   35.3678 C   0  0  0  0  0  0  0  0  0  0  0  0
  -23.6070  -39.7071   34.8375 C   0  0  0  0  0  0  0  0  0  0  0  0
  -24.8228  -39.5421   35.7483 C   0  0  0  0  0  0  0  0  0  0  0  0
  -26.2031  -39.5916   35.0836 C   0  0  0  0  0  0  0  0  0  0  0  0
  -27.4182  -39.5694   36.0741 C   0  0  0  0  0  0  0  0  0  0  0  0
  -28.7588  -39.5047   35.3503 N   0  0  0  0  0  0  0  0  0  0  0  0
  -29.9051  -39.5454   36.3595 C   0  0  0  0  0  0  0  0  0  0  0  0
  -31.2871  -39.5212   35.6496 C   0  0  0  0  0  0  0  0  0  0  0  0
  -32.4874  -39.5547   36.5990 C   0  0  0  0  0  0  0  0  0  0  0  0
  -33.7970  -39.4696   35.8568 N   0  0  0  0  0  0  0  0  0  0  0  0
 10 11  1  0
  9 10  1  0
 11 12  1  0
 13 14  1  0
 12 13  1  0
 14 15  1  0
 15 16  1  0
  2  1  1  0
  4  3  1  0
  3  2  1  0
  7  4  1  0
  4  5  1  6
  4  6  1  0
  8  7  1  0
  8  9  1  0
M  CHG  2  12   1  16   1
M  END
$$$$
