
     RDKit          3D

 14 13  0  0  0  0  0  0  0  0999 V2000
   30.9558   39.4704   35.8626 N   0  0  0  0  0  4  0  0  0  0  0  0
   29.5324   39.5089   36.2122 C   0  0  0  0  0  0  0  0  0  0  0  0
   28.5550   39.7499   35.0273 C   0  0  0  0  0  0  0  0  0  0  0  0
   27.3187   38.8799   35.2321 C   0  0  0  0  0  0  0  0  0  0  0  0
   25.9830   39.5245   35.1519 N   0  0  0  0  0  4  0  0  0  0  0  0
   24.7142   38.8338   35.1995 C   0  0  0  0  0  0  0  0  0  0  0  0
   23.4406   39.6815   35.1004 C   0  0  0  0  0  0  0  0  0  0  0  0
   22.2967   39.2638   36.0439 C   0  0  0  0  0  0  0  0  0  0  0  0
   20.9340   39.3525   35.3905 C   0  0  0  0  0  0  0  0  0  0  0  0
   20.5717   40.6888   34.7862 C   0  0  0  0  0  0  0  0  0  0  0  0
   19.4547   40.5785   33.6587 B   0  0  2  0  0  4  0  0  0  0  0  0
   18.7456   39.2826   33.7695 O   0  0  0  0  0  3  0  0  0  0  0  0
   20.0389   40.5939   32.3099 O   0  0  0  0  0  3  0  0  0  0  0  0
   18.4584   41.6352   33.7464 O   0  0  0  0  0  3  0  0  0  0  0  0
 10 11  1  0
  9 10  1  0
 11 12  1  6
 11 14  1  0
  3  2  1  0
  2  1  1  0
  4  3  1  0
  5  4  1  0
  7  6  1  0
  6  5  1  0
  8  7  1  0
  8  9  1  0
 11 13  1  0
M  CHG  6   1   1   5   1  11  -1  12   1  13   1  14   1
M  END
$$$$
