
     RDKit          3D

 14 13  0  0  0  0  0  0  0  0999 V2000
   29.6270   38.1260   29.9820 N   0  0  0  0  0  0  0  0  0  0  0  0
   30.2410   37.9230   31.3190 C   0  0  0  0  0  0  0  0  0  0  0  0
   29.1850   37.5370   32.3990 C   0  0  0  0  0  0  0  0  0  0  0  0
   28.8420   38.7030   33.3800 C   0  0  0  0  0  0  0  0  0  0  0  0
   27.4090   38.6360   33.8290 N   0  0  0  0  0  0  0  0  0  0  0  0
   26.9950   39.8680   34.5850 C   0  0  0  0  0  0  0  0  0  0  0  0
   25.7100   39.6130   35.4490 C   0  0  0  0  0  0  0  0  0  0  0  0
   24.5390   40.6020   35.1540 C   0  0  0  0  0  0  0  0  0  0  0  0
   23.1300   39.9290   35.0130 C   0  0  0  0  0  0  0  0  0  0  0  0
   22.0510   40.7980   34.2770 C   0  0  0  0  0  0  0  0  0  0  0  0
   20.8140   40.0710   33.7270 C   0  0  0  0  0  0  0  0  0  0  0  0
   20.5840   40.1840   32.4820 O   0  0  0  0  0  0  0  0  0  0  0  0
   19.9580   39.2990   34.5350 N   0  0  0  0  0  0  0  0  0  0  0  0
   18.8470   38.6750   33.8890 O   0  0  0  0  0  0  0  0  0  0  0  0
  3  2  1  0
  2  1  1  0
  4  3  1  0
  5  4  1  0
  6  7  1  0
  6  5  1  0
  7  8  1  0
  8  9  1  0
  9 10  1  0
 10 11  1  0
 11 13  1  0
 11 12  2  0
 13 14  1  0
M  CHG  2   1   1   5   1
M  END
$$$$
