
     RDKit          3D

 11 10  0  0  0  0  0  0  0  0999 V2000
  -30.9916  -38.7481   34.3733 N   0  0  0  0  0  0  0  0  0  0  0  0
  -29.7046  -38.1171   34.5074 C   0  0  0  0  0  0  0  0  0  0  0  0
  -28.4557  -39.0211   34.5051 C   0  0  0  0  0  0  0  0  0  0  0  0
  -27.1646  -38.2200   34.4381 C   0  0  0  0  0  0  0  0  0  0  0  0
  -26.0485  -39.1291   34.4610 N   0  0  0  0  0  0  0  0  0  0  0  0
  -24.7745  -38.3678   34.4513 C   0  0  0  0  0  0  0  0  0  0  0  0
  -23.6427  -39.3372   34.4513 C   0  0  0  0  0  0  0  0  0  0  0  0
  -22.3735  -38.6014   34.5710 C   0  0  0  0  0  0  0  0  0  0  0  0
  -21.2168  -39.5311   34.5355 C   0  0  0  0  0  0  0  0  0  0  0  0
  -20.5615  -39.3831   33.2417 C   0  0  0  0  0  0  0  0  0  0  0  0
  -18.7866  -39.4020   33.6602 S   0  0  0  0  0  0  0  0  0  0  0  0
  3  2  1  0
  2  1  1  0
  4  3  1  0
  5  4  1  0
  6  7  1  0
  6  5  1  0
  7  8  1  0
  8  9  1  0
  9 10  1  0
 10 11  1  0
M  CHG  2   1   1   5   1
M  END
$$$$
