
     RDKit          3D

 11 10  0  0  0  0  0  0  0  0999 V2000
  -29.6610  -41.0380   31.8440 N   0  0  0  0  0  0  0  0  0  0  0  0
  -28.9480  -41.0630   33.1180 C   0  0  0  0  0  0  0  0  0  0  0  0
  -28.0980  -39.8320   33.4210 C   0  0  0  0  0  0  0  0  0  0  0  0
  -27.3730  -40.0070   34.7400 C   0  0  0  0  0  0  0  0  0  0  0  0
  -26.1020  -39.2910   34.6820 N   0  0  0  0  0  0  0  0  0  0  0  0
  -24.9960  -40.1330   35.1610 C   0  0  0  0  0  0  0  0  0  0  0  0
  -23.6880  -39.4210   34.9190 C   0  0  0  0  0  0  0  0  0  0  0  0
  -22.8940  -40.2260   33.9560 C   0  0  0  0  0  0  0  0  0  0  0  0
  -21.6120  -39.5520   33.6870 C   0  0  0  0  0  0  0  0  0  0  0  0
  -20.4990  -40.4890   33.9380 C   0  0  0  0  0  0  0  0  0  0  0  0
  -19.0500  -39.5980   33.4110 S   0  0  0  0  0  0  0  0  0  0  0  0
  3  2  1  0
  2  1  1  0
  4  3  1  0
  5  4  1  0
  6  7  1  0
  6  5  1  0
  7  8  1  0
  8  9  1  0
  9 10  1  0
 10 11  1  0
M  CHG  2   1   1   5   1
M  END
$$$$
