
     RDKit          3D

 17 16  0  0  0  0  0  0  0  0999 V2000
   73.7412  108.9398  277.9546 N   0  0  0  0  0  0  0  0  0  0  0  0
   72.4425  108.8148  277.2885 C   0  0  0  0  0  0  0  0  0  0  0  0
   71.2239  109.0554  278.1973 C   0  0  0  0  0  0  0  0  0  0  0  0
   69.9103  108.5369  277.4523 C   0  0  0  0  0  0  0  0  0  0  0  0
   68.7600  109.4535  277.7074 N   0  0  0  0  0  0  0  0  0  0  0  0
   67.4077  108.7943  277.7153 C   0  0  0  0  0  0  0  0  0  0  0  0
   66.2745  109.7627  277.1660 C   0  0  0  0  0  0  0  0  0  0  0  0
   64.9023  109.4901  277.8535 C   0  0  0  0  0  0  0  0  0  0  0  0
   63.7596  109.6313  276.9247 C   0  0  0  0  0  0  0  0  0  0  0  0
   62.3564  109.7683  277.5105 C   0  0  0  0  0  0  0  0  0  0  0  0
   61.1755  109.6233  276.5305 C   0  0  2  0  0  0  0  0  0  0  0  0
   60.7347  108.2867  276.4911 O   0  0  0  0  0  0  0  0  0  0  0  0
   61.5093  110.0465  275.2733 O   0  0  0  0  0  0  0  0  0  0  0  0
   59.8767  110.4934  276.9891 C   0  0  1  0  0  0  0  0  0  0  0  0
   58.7981  110.1478  276.2661 F   0  0  0  0  0  0  0  0  0  0  0  0
   59.4795  110.2454  278.2585 F   0  0  0  0  0  0  0  0  0  0  0  0
   59.9692  111.8190  276.9026 F   0  0  0  0  0  0  0  0  0  0  0  0
  3  2  1  0
  2  1  1  0
  4  3  1  0
  5  4  1  0
  6  7  1  0
  6  5  1  0
  7  8  1  0
  8  9  1  0
  9 10  1  0
 10 11  1  0
 11 14  1  0
 11 12  1  1
 11 13  1  0
 14 15  1  6
 14 16  1  0
 14 17  1  0
M  CHG  2   1   1   5   1
M  END
$$$$
