
     RDKit          3D

 17 16  0  0  0  0  0  0  0  0999 V2000
   70.3900  110.7190  273.3360 N   0  0  0  0  0  0  0  0  0  0  0  0
   70.5310  110.7690  274.7880 C   0  0  0  0  0  0  0  0  0  0  0  0
   69.2000  110.6660  275.5800 C   0  0  0  0  0  0  0  0  0  0  0  0
   69.2730  109.7240  276.8060 C   0  0  0  0  0  0  0  0  0  0  0  0
   68.1320  109.9520  277.7420 N   0  0  0  0  0  0  0  0  0  0  0  0
   66.8980  109.1740  277.4180 C   0  0  0  0  0  0  0  0  0  0  0  0
   65.7090  110.0950  277.0120 C   0  0  0  0  0  0  0  0  0  0  0  0
   64.3120  109.5560  277.4030 C   0  0  0  0  0  0  0  0  0  0  0  0
   63.2050  109.8810  276.3700 C   0  0  0  0  0  0  0  0  0  0  0  0
   61.8450  110.2440  276.9890 C   0  0  0  0  0  0  0  0  0  0  0  0
   60.6160  109.8690  276.1200 C   0  0  1  0  0  0  0  0  0  0  0  0
   60.8050  110.1890  274.7930 O   0  0  0  0  0  0  0  0  0  0  0  0
   60.3190  108.5310  276.2540 O   0  0  0  0  0  0  0  0  0  0  0  0
   59.2920  110.6820  276.5950 C   0  0  1  0  0  0  0  0  0  0  0  0
   58.1930  110.1850  275.9960 F   0  0  0  0  0  0  0  0  0  0  0  0
   59.0390  110.6070  277.9060 F   0  0  0  0  0  0  0  0  0  0  0  0
   59.2950  111.9790  276.2890 F   0  0  0  0  0  0  0  0  0  0  0  0
  3  2  1  0
  2  1  1  0
  4  3  1  0
  5  4  1  0
  6  7  1  0
  6  5  1  0
  7  8  1  0
  8  9  1  0
  9 10  1  0
 10 11  1  0
 11 14  1  0
 11 12  1  6
 11 13  1  0
 14 15  1  6
 14 16  1  0
 14 17  1  0
M  CHG  2   1   1   5   1
M  END
$$$$
