
     RDKit          3D

 14 13  0  0  0  0  0  0  0  0999 V2000
   73.5681  108.7250  276.1569 N   0  0  0  0  0  0  0  0  0  0  0  0
   72.3541  107.9201  276.0019 C   0  0  0  0  0  0  0  0  0  0  0  0
   71.1427  108.8317  276.3295 C   0  0  0  0  0  0  0  0  0  0  0  0
   69.9649  108.5314  275.3375 C   0  0  0  0  0  0  0  0  0  0  0  0
   68.7213  108.2478  276.1007 N   0  0  0  0  0  0  0  0  0  0  0  0
   67.5932  109.1365  275.8961 C   0  0  0  0  0  0  0  0  0  0  0  0
   66.2801  108.2645  275.8489 C   0  0  0  0  0  0  0  0  0  0  0  0
   65.0337  109.1422  276.1300 C   0  0  0  0  0  0  0  0  0  0  0  0
   63.8520  108.7779  275.2621 C   0  0  0  0  0  0  0  0  0  0  0  0
   62.5314  109.0487  275.9037 C   0  0  0  0  0  0  0  0  0  0  0  0
   61.4875  109.5198  274.9311 C   0  0  0  0  0  0  0  0  0  0  0  0
   61.5889  109.2763  273.7087 O   0  0  0  0  0  0  0  0  0  0  0  0
   60.1462  109.8174  275.4838 C   0  0  0  0  0  0  0  0  0  0  0  0
   58.9800  109.7760  274.1266 S   0  0  0  0  0  0  0  0  0  0  0  0
 10 11  1  0
  9 10  1  0
 11 13  1  0
 11 12  2  0
 13 14  1  0
  3  2  1  0
  2  1  1  0
  4  3  1  0
  5  4  1  0
  7  6  1  0
  6  5  1  0
  8  7  1  0
  8  9  1  0
M  CHG  2   1   1   5   1
M  END
$$$$
