
     RDKit          3D

 14 13  0  0  0  0  0  0  0  0999 V2000
   70.9490  107.6870  269.9700 N   0  0  0  0  0  0  0  0  0  0  0  0
   70.2440  107.0870  271.1070 C   0  0  0  0  0  0  0  0  0  0  0  0
   70.7650  107.6870  272.4300 C   0  0  0  0  0  0  0  0  0  0  0  0
   69.7630  107.4030  273.5680 C   0  0  0  0  0  0  0  0  0  0  0  0
   69.2460  108.6810  274.1150 N   0  0  0  0  0  0  0  0  0  0  0  0
   68.1680  108.5650  275.1170 C   0  0  0  0  0  0  0  0  0  0  0  0
   67.3920  109.8920  275.1980 C   0  0  0  0  0  0  0  0  0  0  0  0
   66.0850  109.7460  275.9720 C   0  0  0  0  0  0  0  0  0  0  0  0
   64.8580  109.9930  275.0980 C   0  0  0  0  0  0  0  0  0  0  0  0
   63.5630  109.7430  275.8400 C   0  0  0  0  0  0  0  0  0  0  0  0
   62.3660  109.8240  274.9330 C   0  0  0  0  0  0  0  0  0  0  0  0
   62.4700  109.7030  273.7220 O   0  0  0  0  0  0  0  0  0  0  0  0
   61.0340  110.0630  275.5540 C   0  0  0  0  0  0  0  0  0  0  0  0
   59.7870  109.3220  274.5170 S   0  0  0  0  0  0  0  0  0  0  0  0
 10 11  1  0
  9 10  1  0
 11 13  1  0
 11 12  2  0
 13 14  1  0
  3  2  1  0
  2  1  1  0
  4  3  1  0
  5  4  1  0
  7  6  1  0
  6  5  1  0
  8  7  1  0
  8  9  1  0
M  CHG  2   1   1   5   1
M  END
$$$$
