
     RDKit          3D

 24 27  0  0  0  0  0  0  0  0999 V2000
   23.2140   54.3511   91.8384 H   0  0  0  0  0  0  0  0  0  0  0  0
   23.3800   53.7624   90.8092 N   0  0  0  0  0  0  0  0  0  0  0  0
   23.0088   54.5966   89.8843 C   0  0  0  0  0  0  0  0  0  0  0  0
   22.3002   54.2067   88.8774 N   0  0  0  0  0  0  0  0  0  0  0  0
   21.6389   54.8920   87.7699 C   0  0  1  0  0  0  0  0  0  0  0  0
   22.4622   54.3860   86.5293 C   0  0  2  0  0  0  0  0  0  0  0  0
   23.4173   53.2697   86.4701 C   0  0  0  0  0  0  0  0  0  0  0  0
   23.9078   54.6377   86.2942 C   0  0  2  0  0  0  0  0  0  0  0  0
   24.7150   55.5096   87.1141 N   0  0  0  0  0  0  0  0  0  0  0  0
   25.8223   56.2799   86.6874 C   0  0  0  0  0  0  0  0  0  0  0  0
   25.8341   56.8118   85.5706 O   0  0  0  0  0  0  0  0  0  0  0  0
   27.1292   55.9529   87.3215 C   0  0  0  0  0  0  0  0  0  0  0  0
   28.2682   56.6405   86.9361 C   0  0  0  0  0  0  0  0  0  0  0  0
   29.4847   56.1428   87.3891 C   0  0  0  0  0  0  0  0  0  0  0  0
   29.5209   55.1567   88.3432 C   0  0  0  0  0  0  0  0  0  0  0  0
   30.5590   54.9065   89.0589 F   0  0  0  0  0  0  0  0  0  0  0  0
   28.3313   54.5089   88.6698 C   0  0  0  0  0  0  0  0  0  0  0  0
   27.1189   54.9469   88.2312 N   0  0  0  0  0  0  0  0  0  0  0  0
   20.2047   54.3890   87.6695 C   0  0  0  0  0  0  0  0  0  0  0  0
   19.3829   55.4198   87.2331 O   0  0  0  0  0  0  0  0  0  0  0  0
   19.8684   56.4940   88.0041 C   0  0  0  0  0  0  0  0  0  0  0  0
   21.4063   56.3732   88.0049 C   0  0  1  0  0  0  0  0  0  0  0  0
   21.8981   57.0709   89.2528 C   0  0  0  0  0  0  0  0  0  0  0  0
   23.3176   56.3169   90.1575 S   0  0  0  0  0  0  0  0  0  0  0  0
 10 12  1  0
 10 11  2  0
  9 10  1  0
  4  3  1  0
  3 24  1  0
  3  2  2  0
 14 15  4  0
 13 14  4  0
 12 13  4  0
 12 18  4  0
 17 15  4  0
 15 16  1  0
 18 17  4  0
  8  9  1  1
  7  8  1  0
  6  8  1  0
  6  7  1  6
  5  6  1  0
  5  4  1  0
  5 19  1  6
  5 22  1  0
 19 20  1  0
 20 21  1  0
 22 21  1  1
 22 23  1  0
 23 24  1  0
  2  1  1  0
M  END
$$$$
