
     RDKit          3D

 24 27  0  0  0  0  0  0  0  0999 V2000
   23.0693   54.4634   91.7319 H   0  0  0  0  0  0  0  0  0  0  0  0
   22.7980   54.1410   90.8030 N   0  0  0  0  0  0  0  0  0  0  0  0
   22.4840   55.0190   89.8630 C   0  0  0  0  0  0  0  0  0  0  0  0
   22.1380   54.6210   88.6710 N   0  0  0  0  0  0  0  0  0  0  0  0
   21.9750   55.3540   87.3910 C   0  0  1  0  0  0  0  0  0  0  0  0
   23.2700   55.0300   86.6320 C   0  0  1  0  0  0  0  0  0  0  0  0
   23.7400   55.6070   85.3260 C   0  0  0  0  0  0  0  0  0  0  0  0
   24.4800   55.8790   86.5870 C   0  0  2  0  0  0  0  0  0  0  0  0
   25.7880   55.4700   87.0270 N   0  0  0  0  0  0  0  0  0  0  0  0
   27.0100   55.7470   86.3960 C   0  0  0  0  0  0  0  0  0  0  0  0
   27.1360   56.3330   85.3460 O   0  0  0  0  0  0  0  0  0  0  0  0
   28.2310   55.3140   87.1350 C   0  0  0  0  0  0  0  0  0  0  0  0
   29.3990   56.0750   87.0610 C   0  0  0  0  0  0  0  0  0  0  0  0
   30.4880   55.6480   87.8200 C   0  0  0  0  0  0  0  0  0  0  0  0
   30.3630   54.5250   88.6370 C   0  0  0  0  0  0  0  0  0  0  0  0
   31.3200   54.0380   89.4060 F   0  0  0  0  0  0  0  0  0  0  0  0
   29.1640   53.8600   88.6640 C   0  0  0  0  0  0  0  0  0  0  0  0
   28.1120   54.2500   87.9350 N   0  0  0  0  0  0  0  0  0  0  0  0
   20.7560   54.7460   86.6950 C   0  0  0  0  0  0  0  0  0  0  0  0
   19.6140   55.3600   87.2430 O   0  0  0  0  0  0  0  0  0  0  0  0
   20.0060   56.7250   87.1910 C   0  0  0  0  0  0  0  0  0  0  0  0
   21.4640   56.8000   87.6180 C   0  0  1  0  0  0  0  0  0  0  0  0
   21.5660   57.4800   88.9610 C   0  0  0  0  0  0  0  0  0  0  0  0
   22.5560   56.7110   90.2830 S   0  0  0  0  0  0  0  0  0  0  0  0
 10 12  1  0
 10 11  2  0
  9 10  1  0
  4  3  1  0
  3 24  1  0
  3  2  2  0
 14 15  2  0
 13 14  1  0
 12 13  2  0
 12 18  1  0
 17 15  1  0
 15 16  1  0
 18 17  2  0
  8  9  1  6
  7  8  1  0
  6  8  1  0
  6  7  1  6
  5  6  1  0
  5  4  1  0
  5 19  1  6
  5 22  1  0
 19 20  1  0
 20 21  1  0
 22 21  1  1
 22 23  1  0
 23 24  1  0
  2  1  1  0
M  END
$$$$
