
     RDKit          3D

 21 23  0  0  0  0  0  0  0  0999 V2000
   22.8611   54.3045   91.3690 H   0  0  0  0  0  0  0  0  0  0  0  0
   22.5830   54.0130   90.4320 N   0  0  0  0  0  0  0  0  0  0  0  0
   22.2910   54.9280   89.5090 C   0  0  0  0  0  0  0  0  0  0  0  0
   21.9070   54.5600   88.2800 N   0  0  0  0  0  0  0  0  0  0  0  0
   21.5270   55.4090   87.1210 C   0  0  1  0  0  0  0  0  0  0  0  0
   22.5990   55.4800   86.0720 C   0  0  2  0  0  0  0  0  0  0  0  0
   23.1320   54.1860   85.4940 C   0  0  0  0  0  0  0  0  0  0  0  0
   24.0290   55.0520   86.3750 C   0  0  1  0  0  0  0  0  0  0  0  0
   25.1920   55.7410   85.7540 C   0  0  0  0  0  0  0  0  0  0  0  0
   25.1670   56.1320   84.5870 O   0  0  0  0  0  0  0  0  0  0  0  0
   26.2770   55.8780   86.5890 N   0  0  0  0  0  0  0  0  0  0  0  0
   27.5840   56.3240   86.1070 C   0  0  0  0  0  0  0  0  0  0  0  0
   28.6410   56.0200   87.1610 C   0  0  0  0  0  0  0  0  0  0  0  0
   28.7780   54.5310   87.3800 C   0  0  0  0  0  0  0  0  0  0  0  0
   29.6520   54.2820   88.6050 C   0  0  0  0  0  0  0  0  0  0  0  0
   20.2080   54.8280   86.6120 C   0  0  0  0  0  0  0  0  0  0  0  0
   19.2160   55.3860   87.4890 O   0  0  0  0  0  0  0  0  0  0  0  0
   19.6960   56.6130   88.0800 C   0  0  0  0  0  0  0  0  0  0  0  0
   21.1010   56.8010   87.5410 C   0  0  1  0  0  0  0  0  0  0  0  0
   22.0430   57.5140   88.5090 C   0  0  0  0  0  0  0  0  0  0  0  0
   22.4170   56.5790   90.0090 S   0  0  0  0  0  0  0  0  0  0  0  0
  9 10  2  0
  6  8  1  0
  5  6  1  0
  6  7  1  6
 17 18  1  0
 16 17  1  0
  8  9  1  6
  7  8  1  0
 14 15  1  0
  9 11  1  0
 11 12  1  0
 12 13  1  0
 13 14  1  0
  5  4  1  0
  5 19  1  0
  5 16  1  6
  4  3  1  0
  3  2  2  0
  3 21  1  0
 21 20  1  0
 19 20  1  1
 19 18  1  0
  2  1  1  0
M  END
$$$$
