
     RDKit          3D

 29 33  0  0  0  0  0  0  0  0999 V2000
   23.9252   53.8604   92.5680 H   0  0  0  0  0  0  0  0  0  0  0  0
   23.8706   53.7722   91.4174 N   0  0  0  0  0  0  0  0  0  0  0  0
   22.5878   54.1840   91.0004 C   0  0  0  0  0  0  0  0  0  0  0  0
   22.0320   53.6251   89.9078 N   0  0  0  0  0  0  0  0  0  0  0  0
   21.1447   54.3367   88.9600 C   0  0  1  0  0  0  0  0  0  0  0  0
   21.6226   54.0203   87.5338 C   0  0  2  0  0  0  0  0  0  0  0  0
   23.1143   53.8503   87.2234 C   0  0  0  0  0  0  0  0  0  0  0  0
   22.3586   55.0937   86.7080 C   0  0  1  0  0  0  0  0  0  0  0  0
   21.9527   55.3270   85.2893 C   0  0  1  0  0  0  0  0  0  0  0  0
   21.2255   54.1217   84.6774 C   0  0  0  0  0  0  0  0  0  0  0  0
   21.1375   56.5505   85.0626 C   0  0  0  0  0  0  0  0  0  0  0  0
   23.1587   55.5928   84.4528 O   0  0  0  0  0  0  0  0  0  0  0  0
   24.3477   54.9972   84.9991 C   0  0  0  0  0  0  0  0  0  0  0  0
   25.2628   56.1779   85.4314 C   0  0  1  0  0  0  0  0  0  0  0  0
   25.3981   56.4665   86.9391 C   0  0  0  0  0  0  0  0  0  0  0  0
   26.5653   55.9027   86.1160 C   0  0  1  0  0  0  0  0  0  0  0  0
   27.0255   54.4951   86.3491 C   0  0  0  0  0  0  0  0  0  0  0  0
   19.7430   53.7021   89.1649 C   0  0  0  0  0  0  0  0  0  0  0  0
   18.8643   54.7445   88.5630 N   0  0  0  0  0  0  0  0  0  0  0  0
   17.5202   54.6230   88.3976 C   0  0  0  0  0  0  0  0  0  0  0  0
   16.8516   53.7869   89.1790 N   0  0  0  0  0  0  0  0  0  0  0  0
   15.5678   54.0224   89.3233 C   0  0  0  0  0  0  0  0  0  0  0  0
   14.9097   54.9441   88.5327 C   0  0  0  0  0  0  0  0  0  0  0  0
   15.6676   55.7008   87.6246 C   0  0  0  0  0  0  0  0  0  0  0  0
   16.9873   55.4865   87.4857 N   0  0  0  0  0  0  0  0  0  0  0  0
   19.5874   56.0158   88.4310 C   0  0  0  0  0  0  0  0  0  0  0  0
   20.9048   55.7991   89.1898 C   0  0  1  0  0  0  0  0  0  0  0  0
   20.7448   56.1674   90.7157 C   0  0  0  0  0  0  0  0  0  0  0  0
   22.0281   55.6504   91.7832 S   0  0  0  0  0  0  0  0  0  0  0  0
 16 15  1  0
 14 15  1  0
  6  7  1  1
  8  7  1  6
 22 23  4  0
 24 23  4  0
  4  3  1  0
  3  2  2  0
  3 29  1  0
 20 25  4  0
 20 21  4  0
 19 20  1  0
 21 22  4  0
 25 24  4  0
 27 26  1  6
 26 19  1  0
  5 18  1  6
 18 19  1  0
 27 28  1  0
 28 29  1  0
  8  6  1  0
  6  5  1  0
  5 27  1  0
  9  8  1  0
 14 16  1  0
 16 17  1  1
 14 13  1  6
  5  4  1  0
  9 10  1  6
  9 11  1  0
 12 13  1  0
  9 12  1  0
  2  1  1  0
M  END
$$$$
