
     RDKit          3D

 29 33  0  0  0  0  0  0  0  0999 V2000
   22.5238   53.1144   90.6743 H   0  0  0  0  0  0  0  0  0  0  0  0
   22.5970   54.1060   90.9020 N   0  0  0  0  0  0  0  0  0  0  0  0
   22.3150   55.0520   89.9480 C   0  0  0  0  0  0  0  0  0  0  0  0
   21.9460   54.7060   88.7250 N   0  0  0  0  0  0  0  0  0  0  0  0
   21.6130   55.6160   87.6230 C   0  0  1  0  0  0  0  0  0  0  0  0
   22.7140   55.5900   86.5790 C   0  0  2  0  0  0  0  0  0  0  0  0
   23.6330   54.3940   86.4140 C   0  0  0  0  0  0  0  0  0  0  0  0
   24.1840   55.7050   86.9370 C   0  0  1  0  0  0  0  0  0  0  0  0
   25.0760   56.6150   86.1340 C   0  0  1  0  0  0  0  0  0  0  0  0
   25.1670   56.2190   84.6440 C   0  0  0  0  0  0  0  0  0  0  0  0
   24.6200   58.0900   86.1880 C   0  0  0  0  0  0  0  0  0  0  0  0
   26.4200   56.6510   86.6960 O   0  0  0  0  0  0  0  0  0  0  0  0
   27.0340   55.3730   86.8610 C   0  0  0  0  0  0  0  0  0  0  0  0
   28.2230   55.5340   87.7970 C   0  0  2  0  0  0  0  0  0  0  0  0
   29.5980   55.8000   87.2130 C   0  0  0  0  0  0  0  0  0  0  0  0
   29.2900   54.4640   87.8400 C   0  0  1  0  0  0  0  0  0  0  0  0
   29.8910   54.1100   89.1600 C   0  0  0  0  0  0  0  0  0  0  0  0
   20.2970   55.0980   86.9900 C   0  0  0  0  0  0  0  0  0  0  0  0
   19.2660   55.7320   87.8290 N   0  0  0  0  0  0  0  0  0  0  0  0
   17.9490   55.3090   87.8990 C   0  0  0  0  0  0  0  0  0  0  0  0
   17.6130   54.2760   87.1090 N   0  0  0  0  0  0  0  0  0  0  0  0
   16.3230   53.8880   87.2000 C   0  0  0  0  0  0  0  0  0  0  0  0
   15.4160   54.5020   88.0430 C   0  0  0  0  0  0  0  0  0  0  0  0
   15.8880   55.5660   88.7880 C   0  0  0  0  0  0  0  0  0  0  0  0
   17.1640   55.9900   88.7520 N   0  0  0  0  0  0  0  0  0  0  0  0
   19.8010   56.8370   88.6250 C   0  0  0  0  0  0  0  0  0  0  0  0
   21.2220   57.0300   88.0600 C   0  0  1  0  0  0  0  0  0  0  0  0
   22.1950   57.6650   89.0520 C   0  0  0  0  0  0  0  0  0  0  0  0
   22.4930   56.6950   90.5510 S   0  0  0  0  0  0  0  0  0  0  0  0
 16 15  1  0
 14 15  1  0
  6  7  1  1
  8  7  1  6
 22 23  2  0
 24 23  1  0
  4  3  1  0
  3  2  2  0
  3 29  1  0
 20 25  1  0
 20 21  2  0
 19 20  1  0
 21 22  1  0
 25 24  2  0
 27 26  1  1
 26 19  1  0
  5 18  1  6
 18 19  1  0
 27 28  1  0
 28 29  1  0
  8  6  1  0
  6  5  1  0
  5 27  1  0
  9  8  1  0
 14 16  1  0
 16 17  1  1
 14 13  1  6
  5  4  1  0
  9 10  1  6
  9 11  1  0
 12 13  1  0
  9 12  1  0
  2  1  1  0
M  END
$$$$
