
     RDKit          3D

 23 25  0  0  0  0  0  0  0  0999 V2000
   11.9089    6.5863  -12.4836 N   0  0  0  0  0  0  0  0  0  0  0  0
   11.0635    6.8282  -11.4917 C   0  0  0  0  0  0  0  0  0  0  0  0
   10.5849    7.9475  -11.3331 O   0  0  0  0  0  0  0  0  0  0  0  0
   10.4950    5.5784  -10.8573 C   0  0  2  0  0  0  0  0  0  0  0  0
   11.0426    5.4875   -9.4547 N   0  0  0  0  0  4  0  0  0  0  0  0
   11.3107    4.3471   -9.3337 N   0  0  0  0  0  0  0  0  0  0  0  0
   10.4328    3.6450   -8.6128 C   0  0  0  0  0  0  0  0  0  0  0  0
    9.7414    2.7000   -9.1168 O   0  0  0  0  0  0  0  0  0  0  0  0
   10.6304    3.7450   -7.2638 C   0  0  0  0  0  0  0  0  0  0  0  0
   10.7246    4.9073   -6.6789 C   0  0  0  0  0  0  0  0  0  0  0  0
   10.4919    4.6962   -5.3668 N   0  0  0  0  0  0  0  0  0  0  0  0
   10.1662    3.4059   -5.2460 C   0  0  0  0  0  0  0  0  0  0  0  0
    9.6965    2.7837   -4.1307 C   0  0  0  0  0  0  0  0  0  0  0  0
    8.8548    1.6691   -4.2826 C   0  0  0  0  0  0  0  0  0  0  0  0
    8.5933    1.2306   -5.5747 C   0  0  0  0  0  0  0  0  0  0  0  0
    9.2702    1.8085   -6.6334 C   0  0  0  0  0  0  0  0  0  0  0  0
   10.0415    2.8728   -6.4360 C   0  0  0  0  0  0  0  0  0  0  0  0
   10.8943    4.4689  -11.5681 C   0  0  0  0  0  0  0  0  0  0  0  0
   10.1109    4.0795  -12.6730 C   0  0  0  0  0  0  0  0  0  0  0  0
   10.7437    3.8030  -13.9035 C   0  0  0  0  0  0  0  0  0  0  0  0
   12.1349    3.6777  -13.9543 C   0  0  0  0  0  0  0  0  0  0  0  0
   12.8791    3.8467  -12.8050 C   0  0  0  0  0  0  0  0  0  0  0  0
   12.2576    4.1315  -11.5726 C   0  0  0  0  0  0  0  0  0  0  0  0
 16 15  4  0
 15 14  4  0
  2  3  2  0
 19 20  4  0
 20 21  4  0
  4 18  1  0
 18 19  4  0
 18 23  4  0
  7  9  1  0
  7  8  2  0
  6  7  1  0
 17 16  4  0
 10 11  4  0
 12 11  4  0
  9 10  4  0
  9 17  4  0
 13 14  4  0
 12 13  4  0
  4  2  1  0
  2  1  1  0
 22 21  4  0
 23 22  4  0
  4  5  1  1
 17 12  4  0
  6  5  1  0
M  CHG  1   5   1
M  END
$$$$
